data_tobacco_crystal_2_PM
_symmetry_space_group_name_H-M	'P1'
_cell_length_a	15.000000
_cell_length_b	15.000000
_cell_length_c	15.000000
_cell_angle_alpha	90.000000
_cell_angle_beta	90.000000
_cell_angle_gamma	90.000000
_symmetry_Int_Tables_number 1

loop_
_symmetry_equiv_pos_as_xyz
'x,y,z'

loop_
_atom_site_label
_atom_site_type_symbol
_atom_site_fract_x
_atom_site_fract_y
_atom_site_fract_z
X1	C	0.021832	-0.298913	-0.020275
C1	C	-0.051168	-0.255646	0.011458
C2	C	-0.046968	-0.165380	0.022591
C3	C	0.029499	-0.119913	0.003125
C4	C	0.099499	-0.165046	-0.030475
C5	C	0.096099	-0.253446	-0.043142
N1	N	0.037299	-0.031113	0.023858
Br1	Br	-0.146035	-0.098780	0.068125
Br2	Br	-0.156235	-0.319913	0.042791
H1	H	0.153965	-0.286980	-0.070675
H2	H	0.160899	-0.129113	-0.046542
N2	N	0.046432	0.024620	-0.037475
C6	C	0.034765	0.114554	0.000725
O1	O	0.080632	0.189487	-0.037809
C7	C	-0.061835	0.241620	-0.001809
C8	C	-0.063235	0.140820	-0.004875
H3	H	-0.093235	0.118287	-0.067742
H4	H	-0.094501	0.268820	-0.061275
H5	H	-0.097368	0.267754	0.056391
H6	H	-0.102168	0.111687	0.049391
H7	H	0.059032	0.268220	0.071191
C9	C	0.036965	0.265087	0.001391
H8	H	0.055832	0.113287	0.071058

loop_
_geom_bond_atom_site_label_1
_geom_bond_atom_site_label_2
_geom_bond_distance
_ccdc_geom_bond_type
X1	C1	0.09060	. A
X1	C5	0.09003	. A
C1	C2	0.09105	. A
C2	C3	0.09107	. A
C3	C4	0.08981	. A
C3	N1	0.09152	. A
C4	C5	0.08937	. A
C4	H2	0.07293	. A
C5	H1	0.07233	. A
N1	N2	0.08338	. A
N2	C6	0.09840	. A
C6	O1	0.09594	. A
C6	C8	0.10161	. A
C6	H8	0.07343	. A
O1	C9	0.09570	. A
C7	C8	0.10086	. A
C7	H4	0.07310	. A
C7	H5	0.07303	. A
C7	C9	0.10160	. A
C8	H3	0.07321	. A
C8	H6	0.07287	. A
H7	C9	0.07327	. A
