data_tobacco_crystal_2_PM
_symmetry_space_group_name_H-M	'P1'
_cell_length_a	15.000000
_cell_length_b	15.000000
_cell_length_c	15.000000
_cell_angle_alpha	90.000000
_cell_angle_beta	90.000000
_cell_angle_gamma	90.000000
_symmetry_Int_Tables_number 1

loop_
_symmetry_equiv_pos_as_xyz
'x,y,z'

loop_
_atom_site_label
_atom_site_type_symbol
_atom_site_fract_x
_atom_site_fract_y
_atom_site_fract_z
X1	C	0.012391	-0.261000	0.004646
C1	C	-0.067075	-0.222533	0.023646
C2	C	-0.075275	-0.132133	0.015046
C3	C	-0.003942	-0.080200	-0.009287
C4	C	0.074791	-0.121667	-0.025087
C5	C	0.082658	-0.210800	-0.019754
C6	C	-0.010942	0.021333	-0.022487
C7	C	-0.161942	-0.093067	0.027980
Br1	Br	-0.165475	-0.293267	0.062580
H1	H	0.146258	-0.241400	-0.037020
H2	H	0.133325	-0.084133	-0.045887
C8	C	0.070391	0.081933	-0.012754
N1	N	0.024791	0.163533	0.012180
N2	N	-0.054409	0.144800	0.052846
N3	N	-0.071009	0.063667	0.042846
C9	C	0.053791	0.249933	-0.000287
H3	H	0.114858	0.060933	0.041313
H4	H	0.108191	0.087933	-0.074820
H5	H	-0.039475	0.031867	-0.089287
N4	N	-0.232675	-0.062667	0.036713
C10	C	0.003725	0.323267	0.009713
H6	H	-0.066209	0.318867	0.027713
H7	H	0.123258	0.254800	-0.020554

loop_
_geom_bond_atom_site_label_1
_geom_bond_atom_site_label_2
_geom_bond_distance
_ccdc_geom_bond_type
X1	C1	0.09031	. A
X1	C5	0.08974	. A
C1	C2	0.09118	. A
C2	C3	0.09153	. A
C2	C7	0.09594	. A
C3	C4	0.09038	. A
C3	C6	0.10263	. A
C4	C5	0.08964	. A
C4	H2	0.07258	. A
C5	H1	0.07266	. A
C6	C8	0.10189	. A
C6	N3	0.09833	. A
C6	H5	0.07340	. A
C7	N4	0.07748	. A
C8	N1	0.09674	. A
C8	H3	0.07309	. A
C8	H4	0.07292	. A
N1	N2	0.09098	. A
N1	C9	0.09199	. A
N2	N3	0.08342	. A
C9	C10	0.08936	. A
C9	H7	0.07253	. A
C10	H6	0.07235	. A
