data_tobacco_crystal_2_PM
_symmetry_space_group_name_H-M	'P1'
_cell_length_a	15.000000
_cell_length_b	15.000000
_cell_length_c	15.000000
_cell_angle_alpha	90.000000
_cell_angle_beta	90.000000
_cell_angle_gamma	90.000000
_symmetry_Int_Tables_number 1

loop_
_symmetry_equiv_pos_as_xyz
'x,y,z'

loop_
_atom_site_label
_atom_site_type_symbol
_atom_site_fract_x
_atom_site_fract_y
_atom_site_fract_z
X1	C	0.023899	-0.414956	0.003465
C1	C	-0.054368	-0.370222	0.002265
C2	C	-0.057968	-0.279956	-0.001335
C3	C	0.019366	-0.231822	-0.003069
C4	C	0.097299	-0.277556	0.000465
C5	C	0.100099	-0.367289	0.003398
C6	C	0.026899	-0.135422	-0.020069
Br1	Br	-0.173501	-0.229622	-0.009802
H1	H	-0.116568	-0.407822	0.001865
H2	H	0.165499	-0.397889	0.003198
H3	H	0.160366	-0.241489	-0.001469
C7	C	-0.021234	-0.068156	0.014198
C8	C	-0.027168	0.023578	-0.027935
H4	H	-0.069634	-0.083022	0.066198
H5	H	0.076366	-0.118089	-0.070535
O1	O	0.041899	0.084511	-0.000669
C9	C	-0.097634	0.159578	0.015131
C10	C	-0.117234	0.064444	-0.006135
C11	C	0.035766	0.252644	-0.016602
H6	H	-0.162968	0.058911	-0.062935
H7	H	-0.119701	0.199911	-0.041735
H8	H	-0.134434	0.183378	0.073465
H9	H	-0.151101	0.033444	0.050598
H10	H	0.017499	0.170511	0.102131
C12	C	0.002966	0.166778	0.030598
H11	H	-0.021168	0.016778	-0.100602
C13	C	0.123566	0.295378	0.009131
N1	N	0.095832	0.388044	0.018065
N2	N	0.006299	0.397111	0.021598
N3	N	-0.029701	0.324044	0.005531
H12	H	0.175099	0.289511	-0.042335
H13	H	0.150366	0.272578	0.072998
H14	H	0.035299	0.242178	-0.089069

loop_
_geom_bond_atom_site_label_1
_geom_bond_atom_site_label_2
_geom_bond_distance
_ccdc_geom_bond_type
X1	C1	0.09016	. A
X1	C5	0.08988	. A
C1	C2	0.09041	. A
C1	H1	0.07268	. A
C2	C3	0.09111	. A
C2	Br1	0.12631	. A
C3	C4	0.09043	. A
C3	C6	0.09818	. A
C4	C5	0.08982	. A
C4	H3	0.07268	. A
C5	H2	0.07220	. A
C6	C7	0.08953	. A
C6	H5	0.07276	. A
C7	C8	0.10112	. A
C7	H4	0.07258	. A
C8	O1	0.09605	. A
C8	C10	0.10128	. A
C8	H11	0.07323	. A
O1	C12	0.09624	. A
C9	C10	0.09943	. A
C9	H7	0.07313	. A
C9	H8	0.07296	. A
C9	C12	0.10204	. A
C10	H6	0.07313	. A
C10	H9	0.07298	. A
C11	C12	0.10333	. A
C11	C13	0.10098	. A
C11	N3	0.09937	. A
C11	H14	0.07322	. A
H10	C12	0.07309	. A
C13	N1	0.09714	. A
C13	H12	0.07307	. A
C13	H13	0.07292	. A
N1	N2	0.09006	. A
N2	N3	0.08302	. A
