data_tobacco_crystal_2_PM
_symmetry_space_group_name_H-M	'P1'
_cell_length_a	15.000000
_cell_length_b	15.000000
_cell_length_c	15.000000
_cell_angle_alpha	90.000000
_cell_angle_beta	90.000000
_cell_angle_gamma	90.000000
_symmetry_Int_Tables_number 1

loop_
_symmetry_equiv_pos_as_xyz
'x,y,z'

loop_
_atom_site_label
_atom_site_type_symbol
_atom_site_fract_x
_atom_site_fract_y
_atom_site_fract_z
X1	C	0.012756	-0.369796	-0.004810
C1	C	-0.068510	-0.331796	0.004190
C2	C	-0.076644	-0.242729	0.013390
C3	C	-0.003444	-0.189996	0.013656
C4	C	0.077290	-0.228596	0.001990
C5	C	0.085556	-0.316929	-0.007744
C6	C	-0.010644	-0.090663	0.026790
N1	N	-0.164377	-0.207463	0.023390
H1	H	-0.128044	-0.373129	0.005123
H2	H	0.152556	-0.342129	-0.017010
H3	H	0.137956	-0.189129	0.000856
H4	H	-0.171510	-0.141996	0.005723
H5	H	-0.215377	-0.244263	-0.001610
C7	C	0.067423	-0.032062	0.000656
N2	N	0.017223	0.046737	-0.019077
N3	N	-0.065977	0.025737	-0.049877
N4	N	-0.081710	-0.053396	-0.030277
C8	C	0.043490	0.133604	-0.012477
H6	H	0.115756	-0.023996	0.054723
H7	H	0.101690	-0.054529	-0.059944
H8	H	-0.028177	-0.077796	0.096790
C9	C	-0.018044	0.197804	-0.009410
C10	C	-0.007644	0.293938	-0.024944
H9	H	-0.087510	0.177471	-0.001877
H10	H	0.114890	0.144737	-0.016744
C11	C	0.076756	0.340404	0.001856
N5	N	0.038423	0.425671	0.023056
N6	N	-0.050110	0.419871	0.043123
N7	N	-0.076710	0.342537	0.025523
H11	H	0.126490	0.343671	-0.051410
H12	H	0.107090	0.313204	0.062456
H13	H	-0.020910	0.305004	-0.096077

loop_
_geom_bond_atom_site_label_1
_geom_bond_atom_site_label_2
_geom_bond_distance
_ccdc_geom_bond_type
X1	C1	0.09016	. A
X1	C5	0.09002	. A
C1	C2	0.08991	. A
C1	H1	0.07248	. A
C2	C3	0.09022	. A
C2	N1	0.09508	. A
C3	C4	0.09024	. A
C3	C6	0.10046	. A
C4	C5	0.08925	. A
C4	H3	0.07238	. A
C5	H2	0.07218	. A
C6	C7	0.10105	. A
C6	N4	0.09847	. A
C6	H8	0.07330	. A
N1	H4	0.06818	. A
N1	H5	0.06768	. A
C7	N2	0.09549	. A
C7	H6	0.07297	. A
C7	H7	0.07315	. A
N2	N3	0.09117	. A
N2	C8	0.09099	. A
N3	N4	0.08303	. A
C8	C9	0.08898	. A
C8	H10	0.07239	. A
C9	C10	0.09793	. A
C9	H9	0.07277	. A
C10	C11	0.10000	. A
C10	N7	0.09838	. A
C10	H13	0.07320	. A
C11	N5	0.09586	. A
C11	H11	0.07295	. A
C11	H12	0.07302	. A
N5	N6	0.09096	. A
N6	N7	0.08365	. A
