data_tobacco_crystal_2_PM
_symmetry_space_group_name_H-M	'P1'
_cell_length_a	15.000000
_cell_length_b	15.000000
_cell_length_c	15.000000
_cell_angle_alpha	90.000000
_cell_angle_beta	90.000000
_cell_angle_gamma	90.000000
_symmetry_Int_Tables_number 1

loop_
_symmetry_equiv_pos_as_xyz
'x,y,z'

loop_
_atom_site_label
_atom_site_type_symbol
_atom_site_fract_x
_atom_site_fract_y
_atom_site_fract_z
X1	C	0.004407	-0.160216	0.034729
C1	C	-0.072193	-0.118482	0.008996
C2	C	-0.071793	-0.027949	0.002729
C3	C	-0.000060	0.021718	0.025329
C4	C	0.074207	-0.021816	0.050396
C5	C	0.078607	-0.111482	0.053329
C6	C	-0.000727	0.122918	0.023929
H1	H	-0.131660	0.006384	-0.018871
C7	C	-0.155660	-0.172349	-0.016204
C8	C	0.228807	-0.130082	0.013529
H2	H	0.132540	0.015984	0.070729
C9	C	0.084340	0.169051	-0.005138
N1	N	0.046740	0.249251	-0.041071
N2	N	-0.041127	0.237651	-0.063738
N3	N	-0.066460	0.161518	-0.039271
N4	N	0.079073	0.329984	-0.015204
H3	H	0.130273	0.182451	0.049929
H4	H	0.119007	0.134584	-0.059338
H5	H	-0.019393	0.145984	0.090862
C10	C	-0.239193	-0.122949	-0.046804
H6	H	-0.291527	-0.171282	-0.062938
H7	H	-0.226860	-0.082882	-0.106471
H8	H	-0.264927	-0.079749	0.006129
H9	H	-0.137860	-0.219549	-0.069271
H10	H	-0.176527	-0.210749	0.042329
N5	N	0.016473	0.381784	0.002329
H11	H	0.207607	-0.145216	-0.054738
H12	H	0.286273	-0.171749	0.029462
H13	H	0.248607	-0.060149	0.019196
O1	O	0.159007	-0.152616	0.075129

loop_
_geom_bond_atom_site_label_1
_geom_bond_atom_site_label_2
_geom_bond_distance
_ccdc_geom_bond_type
X1	C1	0.09095	. A
X1	C5	0.09070	. A
C1	C2	0.09075	. A
C1	C7	0.10249	. A
C2	C3	0.09013	. A
C2	H1	0.07231	. A
C3	C4	0.08966	. A
C3	C6	0.10121	. A
C4	C5	0.08982	. A
C4	H2	0.07242	. A
C5	O1	0.09291	. A
C6	C9	0.10104	. A
C6	N3	0.09902	. A
C6	H5	0.07322	. A
C7	C10	0.10176	. A
C7	H9	0.07322	. A
C7	H10	0.07305	. A
C8	H11	0.07307	. A
C8	H12	0.07275	. A
C8	H13	0.07290	. A
C8	O1	0.09578	. A
C9	N1	0.09559	. A
C9	H3	0.07295	. A
C9	H4	0.07299	. A
N1	N2	0.09148	. A
N1	N4	0.09073	. A
N2	N3	0.08388	. A
N4	N5	0.08312	. A
C10	H6	0.07304	. A
C10	H7	0.07292	. A
C10	H8	0.07301	. A
