data_tobacco_crystal_2_PM
_symmetry_space_group_name_H-M	'P1'
_cell_length_a	15.000000
_cell_length_b	15.000000
_cell_length_c	15.000000
_cell_angle_alpha	90.000000
_cell_angle_beta	90.000000
_cell_angle_gamma	90.000000
_symmetry_Int_Tables_number 1

loop_
_symmetry_equiv_pos_as_xyz
'x,y,z'

loop_
_atom_site_label
_atom_site_type_symbol
_atom_site_fract_x
_atom_site_fract_y
_atom_site_fract_z
X1	C	0.052644	-0.253858	-0.006596
C1	C	-0.025756	-0.206991	-0.010729
C2	C	-0.021089	-0.116858	-0.014929
C3	C	0.056044	-0.071391	-0.010196
C4	C	0.132111	-0.118458	-0.004662
C5	C	0.130511	-0.207924	-0.003662
C6	C	0.059978	0.024809	-0.001196
H1	H	-0.081889	-0.078391	-0.019329
C7	C	-0.118156	-0.250258	-0.004396
H2	H	0.195378	-0.238791	0.002138
H3	H	0.195978	-0.084524	0.000938
C8	C	-0.008222	0.082742	-0.003396
C9	C	0.001711	0.178609	0.022538
H4	H	-0.075822	0.062276	-0.019729
H5	H	0.125378	0.050076	0.017471
C10	C	-0.197889	-0.189658	0.017071
H6	H	-0.192822	-0.164391	0.085538
H7	H	-0.203956	-0.132791	-0.028196
H8	H	-0.260156	-0.227191	0.011671
H9	H	-0.116956	-0.298191	0.050738
H10	H	-0.132356	-0.286324	-0.066262
C11	C	0.089044	0.222942	-0.001729
N1	N	0.056778	0.306342	-0.035262
N2	N	-0.033022	0.305942	-0.049462
N3	N	-0.064422	0.232409	-0.025596
C12	C	0.091111	0.390476	-0.004929
H11	H	0.135244	0.227142	0.054804
H12	H	0.123311	0.188676	-0.056462
H13	H	-0.012156	0.184942	0.094138
C13	C	0.099444	0.468609	0.009671

loop_
_geom_bond_atom_site_label_1
_geom_bond_atom_site_label_2
_geom_bond_distance
_ccdc_geom_bond_type
X1	C1	0.09143	. A
X1	C5	0.09045	. A
C1	C2	0.09035	. A
C1	C7	0.10222	. A
C2	C3	0.08966	. A
C2	H1	0.07208	. A
C3	C4	0.08962	. A
C3	C6	0.09670	. A
C4	C5	0.08949	. A
C4	H3	0.07254	. A
C5	H2	0.07207	. A
C6	C8	0.08951	. A
C6	H5	0.07255	. A
C7	C10	0.10242	. A
C7	H9	0.07307	. A
C7	H10	0.07301	. A
C8	C9	0.09981	. A
C8	H4	0.07249	. A
C9	C11	0.10090	. A
C9	N3	0.09790	. A
C9	H13	0.07320	. A
C10	H6	0.07316	. A
C10	H7	0.07294	. A
C10	H8	0.07290	. A
C11	N1	0.09550	. A
C11	H11	0.07313	. A
C11	H12	0.07310	. A
N1	N2	0.09092	. A
N1	C12	0.09580	. A
N2	N3	0.08344	. A
C12	C13	0.07992	. A
