data_tobacco_crystal_2_PM
_symmetry_space_group_name_H-M	'P1'
_cell_length_a	15.000000
_cell_length_b	15.000000
_cell_length_c	15.000000
_cell_angle_alpha	90.000000
_cell_angle_beta	90.000000
_cell_angle_gamma	90.000000
_symmetry_Int_Tables_number 1

loop_
_symmetry_equiv_pos_as_xyz
'x,y,z'

loop_
_atom_site_label
_atom_site_type_symbol
_atom_site_fract_x
_atom_site_fract_y
_atom_site_fract_z
X1	C	0.085235	-0.117083	0.009248
C1	C	0.004635	-0.071883	0.007581
C2	C	0.004635	0.020051	0.008314
C3	C	0.081768	0.068384	0.008781
C4	C	0.158835	0.021651	0.008714
C5	C	0.161435	-0.068083	0.008981
C6	C	0.092102	0.167251	0.005781
C7	C	-0.078165	0.067917	0.009048
C8	C	-0.083232	-0.126683	0.001848
Cl1	Cl	0.269635	-0.111216	0.007314
H1	H	0.222035	0.057717	0.008114
C9	C	0.030902	0.232651	0.009781
H2	H	-0.039698	0.223251	0.017981
H3	H	0.160902	0.190117	-0.002086
N1	N	-0.144765	0.107317	0.008981
C10	C	-0.172232	-0.087416	-0.027952
H4	H	-0.164098	-0.044083	-0.086019
H5	H	-0.217765	-0.140749	-0.048152
H6	H	-0.205098	-0.052083	0.026714
H7	H	-0.072765	-0.177616	-0.049419
H8	H	-0.094298	-0.159416	0.066448

loop_
_geom_bond_atom_site_label_1
_geom_bond_atom_site_label_2
_geom_bond_distance
_ccdc_geom_bond_type
X1	C1	0.09242	. A
X1	C5	0.09060	. A
C1	C2	0.09194	. A
C1	C8	0.10371	. A
C2	C3	0.09103	. A
C2	C7	0.09564	. A
C3	C4	0.09013	. A
C3	C6	0.09945	. A
C4	C5	0.08977	. A
C4	H1	0.07277	. A
C5	Cl1	0.11649	. A
C6	C9	0.08966	. A
C6	H3	0.07293	. A
C7	N1	0.07738	. A
C8	C10	0.10174	. A
C8	H7	0.07302	. A
C8	H8	0.07326	. A
C9	H2	0.07169	. A
C10	H4	0.07291	. A
C10	H5	0.07298	. A
C10	H6	0.07292	. A
