data_tobacco_crystal_2_PM
_symmetry_space_group_name_H-M	'P1'
_cell_length_a	15.000000
_cell_length_b	15.000000
_cell_length_c	15.000000
_cell_angle_alpha	90.000000
_cell_angle_beta	90.000000
_cell_angle_gamma	90.000000
_symmetry_Int_Tables_number 1

loop_
_symmetry_equiv_pos_as_xyz
'x,y,z'

loop_
_atom_site_label
_atom_site_type_symbol
_atom_site_fract_x
_atom_site_fract_y
_atom_site_fract_z
X1	C	0.029824	-0.311671	0.005195
C1	C	-0.044443	-0.261871	0.014395
C2	C	-0.038843	-0.172471	0.015195
C3	C	0.040224	-0.129205	0.004795
C4	C	0.114290	-0.180405	-0.002205
C5	C	0.108957	-0.269805	-0.001605
C6	C	0.043490	-0.030471	0.000595
H1	H	-0.101043	-0.135871	0.023395
H2	H	-0.109710	-0.293005	0.020795
F1	F	0.185224	-0.317271	-0.009205
H3	H	0.179890	-0.150671	-0.009671
C7	C	-0.026576	0.014995	-0.033138
C8	C	-0.031443	0.104729	-0.033938
C9	C	0.039624	0.153395	-0.005671
C10	C	0.112290	0.108529	0.023995
C11	C	0.113690	0.018729	0.028729
C12	C	0.044157	0.251062	-0.007871
C13	C	-0.185243	0.122062	-0.011005
H4	H	-0.083310	-0.020738	-0.060538
H5	H	0.173024	-0.012671	0.055929
H6	H	0.171090	0.144795	0.046395
C14	C	-0.024843	0.307395	-0.000538
H7	H	-0.092910	0.285529	0.007729
H8	H	0.110957	0.279262	-0.015071
H9	H	-0.240910	0.106129	-0.055271
H10	H	-0.174776	0.065395	0.034062
H11	H	-0.203310	0.179929	0.029462
O1	O	-0.109376	0.144195	-0.064938

loop_
_geom_bond_atom_site_label_1
_geom_bond_atom_site_label_2
_geom_bond_distance
_ccdc_geom_bond_type
X1	C1	0.08989	. A
X1	C5	0.08978	. A
C1	C2	0.08958	. A
C1	H2	0.07259	. A
C2	C3	0.09073	. A
C2	H1	0.07263	. A
C3	C4	0.09031	. A
C3	C6	0.09888	. A
C4	C5	0.08956	. A
C4	H3	0.07241	. A
C5	F1	0.09015	. A
C6	C7	0.09008	. A
C6	C11	0.09022	. A
C7	C8	0.08987	. A
C7	H4	0.07243	. A
C8	C9	0.09065	. A
C8	O1	0.09269	. A
C9	C10	0.09041	. A
C9	C12	0.09780	. A
C10	C11	0.08994	. A
C10	H6	0.07263	. A
C11	H5	0.07243	. A
C12	C14	0.08938	. A
C12	H8	0.07287	. A
C13	H9	0.07288	. A
C13	H10	0.07316	. A
C13	H11	0.07289	. A
C13	O1	0.09568	. A
C14	H7	0.07197	. A
