data_tobacco_crystal_2_PM
_symmetry_space_group_name_H-M	'P1'
_cell_length_a	15.000000
_cell_length_b	15.000000
_cell_length_c	15.000000
_cell_angle_alpha	90.000000
_cell_angle_beta	90.000000
_cell_angle_gamma	90.000000
_symmetry_Int_Tables_number 1

loop_
_symmetry_equiv_pos_as_xyz
'x,y,z'

loop_
_atom_site_label
_atom_site_type_symbol
_atom_site_fract_x
_atom_site_fract_y
_atom_site_fract_z
X1	C	0.026925	-0.362221	-0.015708
C1	C	-0.051208	-0.325488	0.009025
C2	C	-0.060942	-0.236021	0.013425
C3	C	0.007458	-0.180421	-0.009842
C4	C	0.084992	-0.219888	-0.035975
C5	C	0.095392	-0.308954	-0.038375
C6	C	0.003392	-0.081021	-0.011775
N1	N	-0.145475	-0.205888	0.045425
H1	H	-0.106608	-0.368754	0.027158
H2	H	0.158925	-0.335821	-0.060508
H3	H	0.141658	-0.179821	-0.056708
H4	H	-0.197275	-0.228554	0.007825
H5	H	-0.151742	-0.139354	0.055358
C7	C	-0.069275	-0.035621	-0.040508
C8	C	-0.071342	0.054046	-0.041442
C9	C	0.000258	0.103312	-0.016975
C10	C	0.074192	0.058446	0.008292
C11	C	0.074992	-0.031154	0.012158
C12	C	-0.007608	0.204446	-0.018308
H6	H	-0.132608	0.086979	-0.062375
H7	H	-0.128608	-0.070288	-0.063308
H8	H	0.136125	-0.062554	0.035158
H9	H	0.134992	0.092712	0.027158
C13	C	0.067325	0.261312	0.018492
N2	N	0.018792	0.324579	0.073025
N3	N	-0.067542	0.298112	0.085425
N4	N	-0.083542	0.230912	0.038558
C14	C	0.026392	0.418046	0.048958
H10	H	0.105992	0.292712	-0.035042
H11	H	0.113992	0.225646	0.061625
H12	H	-0.021475	0.225779	-0.087108
C15	C	0.023458	0.494779	0.026892

loop_
_geom_bond_atom_site_label_1
_geom_bond_atom_site_label_2
_geom_bond_distance
_ccdc_geom_bond_type
X1	C1	0.08981	. A
X1	C5	0.08966	. A
C1	C2	0.09010	. A
C1	H1	0.07259	. A
C2	C3	0.09117	. A
C2	N1	0.09528	. A
C3	C4	0.09084	. A
C3	C6	0.09950	. A
C4	C5	0.08970	. A
C4	H3	0.07243	. A
C5	H2	0.07244	. A
C6	C7	0.09037	. A
C6	C11	0.09048	. A
N1	H4	0.06790	. A
N1	H5	0.06756	. A
C7	C8	0.08970	. A
C7	H7	0.07240	. A
C8	C9	0.09029	. A
C8	H6	0.07264	. A
C9	C10	0.09010	. A
C9	C12	0.10145	. A
C10	C11	0.08969	. A
C10	H9	0.07230	. A
C11	H8	0.07247	. A
C12	C13	0.10101	. A
C12	N4	0.09849	. A
C12	H12	0.07335	. A
C13	N2	0.09660	. A
C13	H10	0.07312	. A
C13	H11	0.07287	. A
N2	N3	0.09115	. A
N2	C14	0.09681	. A
N3	N4	0.08348	. A
C14	C15	0.07990	. A
