data_tobacco_crystal_2_PM
_symmetry_space_group_name_H-M	'P1'
_cell_length_a	15.000000
_cell_length_b	15.000000
_cell_length_c	15.000000
_cell_angle_alpha	90.000000
_cell_angle_beta	90.000000
_cell_angle_gamma	90.000000
_symmetry_Int_Tables_number 1

loop_
_symmetry_equiv_pos_as_xyz
'x,y,z'

loop_
_atom_site_label
_atom_site_type_symbol
_atom_site_fract_x
_atom_site_fract_y
_atom_site_fract_z
X1	C	0.066810	-0.222686	-0.038267
C1	C	-0.014857	-0.185153	-0.026667
C2	C	-0.018523	-0.096820	-0.009733
C3	C	0.053810	-0.043353	-0.003867
C4	C	0.133943	-0.081820	-0.017800
C5	C	0.139743	-0.170020	-0.034400
C6	C	0.042543	0.054380	0.021267
H1	H	-0.083523	-0.067086	0.001133
C7	C	-0.170857	-0.207020	0.010400
F1	F	0.222077	-0.205020	-0.044800
H2	H	0.194677	-0.042620	-0.014067
O1	O	0.101477	0.116847	-0.022133
C8	C	-0.033657	0.192980	0.002400
C9	C	-0.049457	0.093980	0.003400
N1	N	0.090610	0.285580	-0.039533
H3	H	-0.098590	0.074580	0.053733
H4	H	-0.066857	0.227514	0.057400
H5	H	-0.060323	0.221114	-0.059733
H6	H	-0.074657	0.073780	-0.062267
H7	H	0.088410	0.208314	0.077867
C10	C	0.067677	0.202647	0.007800
H8	H	0.056810	0.058447	0.093133
H9	H	-0.195990	-0.145753	-0.020333
H10	H	-0.160457	-0.197753	0.082067
H11	H	-0.221990	-0.258086	0.001067
O2	O	-0.091123	-0.237220	-0.031133
N2	N	0.082277	0.350247	0.013067

loop_
_geom_bond_atom_site_label_1
_geom_bond_atom_site_label_2
_geom_bond_distance
_ccdc_geom_bond_type
X1	C1	0.09062	. A
X1	C5	0.09004	. A
C1	C2	0.09002	. A
C1	O2	0.09245	. A
C2	C3	0.09014	. A
C2	H1	0.07230	. A
C3	C4	0.08997	. A
C3	C6	0.10154	. A
C4	C5	0.08994	. A
C4	H2	0.07238	. A
C5	F1	0.09007	. A
C6	O1	0.09622	. A
C6	C9	0.10174	. A
C6	H8	0.07338	. A
C7	H9	0.07301	. A
C7	H10	0.07301	. A
C7	H11	0.07287	. A
C7	O2	0.09484	. A
O1	C10	0.09695	. A
C8	C9	0.10026	. A
C8	H4	0.07294	. A
C8	H5	0.07323	. A
C8	C10	0.10194	. A
C9	H3	0.07296	. A
C9	H6	0.07318	. A
N1	C10	0.09821	. A
N1	N2	0.08377	. A
H7	C10	0.07329	. A
