data_tobacco_crystal_2_PM
_symmetry_space_group_name_H-M	'P1'
_cell_length_a	15.000000
_cell_length_b	15.000000
_cell_length_c	15.000000
_cell_angle_alpha	90.000000
_cell_angle_beta	90.000000
_cell_angle_gamma	90.000000
_symmetry_Int_Tables_number 1

loop_
_symmetry_equiv_pos_as_xyz
'x,y,z'

loop_
_atom_site_label
_atom_site_type_symbol
_atom_site_fract_x
_atom_site_fract_y
_atom_site_fract_z
X1	C	-0.045899	-0.310778	0.008357
C1	C	-0.119232	-0.258778	0.005557
C2	C	-0.111832	-0.170045	0.001624
C3	C	-0.031699	-0.127778	0.001224
C4	C	0.041701	-0.180378	0.008890
C5	C	0.035168	-0.270578	0.010757
C6	C	-0.027899	-0.027512	-0.017776
F1	F	-0.188299	-0.123178	-0.006576
H1	H	-0.185832	-0.287712	0.003690
N1	N	0.115768	-0.322778	0.011424
H2	H	0.106834	-0.149178	0.008224
C7	C	0.046634	0.039222	0.008024
C8	C	0.005768	0.129755	-0.023643
N2	N	-0.091499	0.109755	-0.025910
N3	N	-0.102766	0.025155	0.016890
C9	C	0.020834	0.217022	0.030224
H3	H	-0.161832	-0.004045	-0.001310
H4	H	-0.126299	0.159888	0.005290
H5	H	0.109034	0.024422	-0.026776
H6	H	0.026368	0.140955	-0.092976
H7	H	0.059234	0.038955	0.080090
H8	H	-0.031499	-0.026245	-0.091310
H9	H	0.172034	-0.284512	0.014490
H10	H	0.121568	-0.358778	-0.046576
C10	C	0.099034	0.276955	0.006690
N4	N	0.055368	0.362822	0.000424
N5	N	-0.034366	0.356088	-0.002310
N6	N	-0.056899	0.277022	0.011424
H11	H	0.150834	0.278888	0.057890
H12	H	0.129634	0.262155	-0.057976
H13	H	0.020034	0.203222	0.101957

loop_
_geom_bond_atom_site_label_1
_geom_bond_atom_site_label_2
_geom_bond_distance
_ccdc_geom_bond_type
X1	C1	0.08994	. A
X1	C5	0.09052	. A
C1	C2	0.08913	. A
C1	H1	0.07264	. A
C2	C3	0.09060	. A
C2	F1	0.09006	. A
C3	C4	0.09063	. A
C3	C6	0.10212	. A
C4	C5	0.09046	. A
C4	H2	0.07222	. A
C5	N1	0.09603	. A
C6	C7	0.10332	. A
C6	N3	0.09788	. A
C6	H8	0.07363	. A
F1	H3	0.12215	. A
N1	H9	0.06812	. A
N1	H10	0.06851	. A
C7	C8	0.10426	. A
C7	H5	0.07296	. A
C7	H7	0.07316	. A
C8	N2	0.09933	. A
C8	C9	0.10365	. A
C8	H6	0.07319	. A
N2	N3	0.09548	. A
N2	H4	0.06854	. A
N3	H3	0.06836	. A
C9	C10	0.10130	. A
C9	N6	0.09998	. A
C9	H13	0.07305	. A
C10	N4	0.09654	. A
C10	H11	0.07286	. A
C10	H12	0.07306	. A
N4	N5	0.09003	. A
N5	N6	0.08335	. A
