data_tobacco_crystal_2_PM
_symmetry_space_group_name_H-M	'P1'
_cell_length_a	15.000000
_cell_length_b	15.000000
_cell_length_c	15.000000
_cell_angle_alpha	90.000000
_cell_angle_beta	90.000000
_cell_angle_gamma	90.000000
_symmetry_Int_Tables_number 1

loop_
_symmetry_equiv_pos_as_xyz
'x,y,z'

loop_
_atom_site_label
_atom_site_type_symbol
_atom_site_fract_x
_atom_site_fract_y
_atom_site_fract_z
X1	C	-0.000882	-0.248538	0.003659
C1	C	-0.074749	-0.197672	-0.007741
C2	C	-0.066882	-0.108605	-0.016208
C3	C	0.012985	-0.066672	-0.010408
C4	C	0.086185	-0.117872	0.004259
C5	C	0.078851	-0.207205	0.011459
C6	C	0.019118	0.029195	-0.026674
H1	H	-0.126682	-0.069538	-0.028674
N1	N	-0.162749	-0.233605	-0.013208
H2	H	0.139451	-0.244405	0.024259
N2	N	0.172718	-0.079272	0.013859
H3	H	-0.168682	-0.298138	0.008459
H4	H	-0.212749	-0.194872	0.010859
H5	H	0.218451	-0.115738	0.047859
H6	H	0.173251	-0.014672	0.034392
C7	C	-0.039282	0.091128	0.001059
C8	C	-0.034082	0.187528	-0.024474
H7	H	-0.096549	0.071662	0.041126
H8	H	0.075318	0.049395	-0.068274
C9	C	0.048918	0.237928	0.001859
N3	N	0.009651	0.323862	0.018392
N4	N	-0.079282	0.318062	0.035526
N5	N	-0.105015	0.239328	0.021059
H9	H	0.099918	0.240595	-0.050141
H10	H	0.078718	0.214262	0.064192
H11	H	-0.045949	0.193862	-0.096474

loop_
_geom_bond_atom_site_label_1
_geom_bond_atom_site_label_2
_geom_bond_distance
_ccdc_geom_bond_type
X1	C1	0.09041	. A
X1	C5	0.09015	. A
C1	C2	0.08981	. A
C1	N1	0.09521	. A
C2	C3	0.09039	. A
C2	H1	0.07251	. A
C3	C4	0.09053	. A
C3	C6	0.09743	. A
C4	C5	0.08992	. A
C4	N2	0.09524	. A
C5	H2	0.07225	. A
C6	C7	0.08953	. A
C6	H8	0.07278	. A
N1	H3	0.06833	. A
N1	H4	0.06767	. A
N2	H5	0.06766	. A
N2	H6	0.06779	. A
C7	C8	0.09986	. A
C7	H7	0.07255	. A
C8	C9	0.10061	. A
C8	N5	0.09893	. A
C8	H11	0.07325	. A
C9	N3	0.09592	. A
C9	H9	0.07288	. A
C9	H10	0.07303	. A
N3	N4	0.09075	. A
N4	N5	0.08409	. A
