data_tobacco_crystal_2_PM
_symmetry_space_group_name_H-M	'P1'
_cell_length_a	15.000000
_cell_length_b	15.000000
_cell_length_c	15.000000
_cell_angle_alpha	90.000000
_cell_angle_beta	90.000000
_cell_angle_gamma	90.000000
_symmetry_Int_Tables_number 1

loop_
_symmetry_equiv_pos_as_xyz
'x,y,z'

loop_
_atom_site_label
_atom_site_type_symbol
_atom_site_fract_x
_atom_site_fract_y
_atom_site_fract_z
X1	C	-0.002025	-0.324817	-0.002377
C1	C	-0.077625	-0.281283	-0.023710
C2	C	-0.077758	-0.192217	-0.033777
C3	C	-0.004758	-0.140883	-0.018444
C4	C	0.071242	-0.186883	0.001156
C5	C	0.073508	-0.276817	0.007490
C6	C	-0.007492	-0.039750	-0.018910
H1	H	-0.141092	-0.164017	-0.053844
H2	H	-0.139825	-0.317550	-0.033310
N1	N	0.157775	-0.320150	0.025490
H3	H	0.132908	-0.151417	0.013690
H4	H	0.208042	-0.285550	-0.005577
H5	H	0.174042	-0.308483	0.091090
C7	C	-0.083558	0.010650	-0.010577
C8	C	-0.079758	0.099917	-0.003310
C9	C	-0.002425	0.145583	0.000556
C10	C	0.072775	0.098317	-0.013644
C11	C	0.069842	0.008650	-0.024310
C12	C	-0.007025	0.243050	0.026423
H6	H	-0.141825	0.136450	0.005356
N2	N	-0.171758	-0.024883	-0.002910
H7	H	0.133708	-0.023683	-0.034244
H8	H	0.137642	0.130983	-0.013444
C13	C	0.063908	0.310183	0.002090
N3	N	0.009042	0.389317	-0.001644
N4	N	-0.078692	0.370117	-0.013177
N5	N	-0.089425	0.287383	-0.007110
H9	H	0.093775	0.299783	-0.063577
H10	H	0.116175	0.316917	0.052556
H11	H	-0.012558	0.243050	0.099690
H12	H	-0.175958	-0.072683	0.044956
H13	H	-0.220825	0.020717	0.007356

loop_
_geom_bond_atom_site_label_1
_geom_bond_atom_site_label_2
_geom_bond_distance
_ccdc_geom_bond_type
X1	C1	0.08981	. A
X1	C5	0.09004	. A
C1	C2	0.08963	. A
C1	H2	0.07264	. A
C2	C3	0.09055	. A
C2	H1	0.07217	. A
C3	C4	0.09097	. A
C3	C6	0.10117	. A
C4	C5	0.09018	. A
C4	H3	0.07223	. A
C5	N1	0.09645	. A
C6	C7	0.09163	. A
C6	C11	0.09139	. A
N1	H4	0.06848	. A
N1	H5	0.06859	. A
C7	C8	0.08964	. A
C7	N2	0.09540	. A
C8	C9	0.08989	. A
C8	H6	0.07254	. A
C9	C10	0.08995	. A
C9	C12	0.10095	. A
C10	C11	0.09035	. A
C10	H8	0.07263	. A
C11	H7	0.07227	. A
C12	C13	0.10065	. A
C12	N5	0.09940	. A
C12	H11	0.07348	. A
N2	H12	0.06778	. A
N2	H13	0.06777	. A
C13	N3	0.09637	. A
C13	H9	0.07289	. A
C13	H10	0.07297	. A
N3	N4	0.09055	. A
N4	N5	0.08365	. A
