data_tobacco_crystal_2_PM
_symmetry_space_group_name_H-M	'P1'
_cell_length_a	15.000000
_cell_length_b	15.000000
_cell_length_c	15.000000
_cell_angle_alpha	90.000000
_cell_angle_beta	90.000000
_cell_angle_gamma	90.000000
_symmetry_Int_Tables_number 1

loop_
_symmetry_equiv_pos_as_xyz
'x,y,z'

loop_
_atom_site_label
_atom_site_type_symbol
_atom_site_fract_x
_atom_site_fract_y
_atom_site_fract_z
X1	C	-0.031333	-0.211195	0.029802
C1	C	-0.085067	-0.139862	0.039402
C2	C	-0.061000	-0.055862	0.017469
C3	C	0.024067	-0.040795	-0.012531
C4	C	0.073800	-0.114862	-0.034198
C5	C	0.048533	-0.199195	-0.010931
C6	C	0.067267	0.053272	-0.021598
C7	C	-0.135333	0.014805	0.018269
H1	H	-0.151667	-0.150328	0.066602
Br1	Br	0.125667	-0.297928	-0.034464
Br2	Br	0.175133	-0.101262	-0.113731
C8	C	-0.226533	-0.018462	-0.015664
H2	H	-0.261333	-0.058462	0.034602
H3	H	-0.269933	0.037805	-0.032131
H4	H	-0.219400	-0.058928	-0.076131
H5	H	-0.118667	0.068138	-0.028464
H6	H	-0.142800	0.043938	0.084736
C9	C	0.157267	0.059605	0.027069
C10	C	0.184733	0.153205	0.003736
N1	N	0.102000	0.203072	0.023336
N2	N	0.028267	0.134405	0.020336
H7	H	-0.022200	0.158872	-0.018331
H8	H	0.106400	0.229872	0.086202
H9	H	0.149400	0.050872	0.099669
H10	H	0.199733	0.158472	-0.067798
H11	H	0.209533	0.013472	0.007869
H12	H	0.073467	0.067338	-0.093131

loop_
_geom_bond_atom_site_label_1
_geom_bond_atom_site_label_2
_geom_bond_distance
_ccdc_geom_bond_type
X1	C1	0.08982	. A
X1	C5	0.09045	. A
C1	C2	0.09009	. A
C1	H1	0.07270	. A
C2	C3	0.09145	. A
C2	C7	0.10257	. A
C3	C4	0.09181	. A
C3	C6	0.10391	. A
C4	C5	0.09106	. A
C6	C9	0.10251	. A
C6	N2	0.09931	. A
C6	H12	0.07317	. A
C7	C8	0.10284	. A
C7	H5	0.07284	. A
C7	H6	0.07295	. A
C8	H2	0.07306	. A
C8	H3	0.07294	. A
C8	H4	0.07311	. A
C9	C10	0.10030	. A
C9	H9	0.07355	. A
C9	H11	0.07231	. A
C10	N1	0.09857	. A
C10	H10	0.07328	. A
N1	N2	0.10080	. A
N1	H8	0.06848	. A
N2	H7	0.06812	. A
