data_tobacco_crystal_2_PM
_symmetry_space_group_name_H-M	'P1'
_cell_length_a	15.000000
_cell_length_b	15.000000
_cell_length_c	15.000000
_cell_angle_alpha	90.000000
_cell_angle_beta	90.000000
_cell_angle_gamma	90.000000
_symmetry_Int_Tables_number 1

loop_
_symmetry_equiv_pos_as_xyz
'x,y,z'

loop_
_atom_site_label
_atom_site_type_symbol
_atom_site_fract_x
_atom_site_fract_y
_atom_site_fract_z
X1	C	0.003530	-0.236822	-0.002175
C1	C	-0.073803	-0.193356	0.010159
C2	C	-0.076937	-0.103289	0.014825
C3	C	-0.001137	-0.051822	0.006492
C4	C	0.076197	-0.098222	-0.009108
C5	C	0.077597	-0.188356	-0.012908
C6	C	-0.009803	0.051511	0.019559
Br1	Br	-0.193003	-0.056556	0.036425
H1	H	-0.134870	-0.232089	0.017759
F1	F	0.155997	-0.231289	-0.026308
Cl1	Cl	0.180863	-0.050822	-0.023908
C7	C	0.068730	0.117644	0.022625
C8	C	0.037530	0.202378	-0.023908
N1	N	-0.058537	0.189444	-0.038175
N2	N	-0.069803	0.093978	-0.046108
H2	H	-0.134470	0.075578	-0.033308
H3	H	-0.092803	0.217511	0.013959
H4	H	0.127397	0.097444	-0.014241
H5	H	0.069663	0.208844	-0.089308
H6	H	0.088730	0.129311	0.092025
H7	H	-0.041070	0.058978	0.085625

loop_
_geom_bond_atom_site_label_1
_geom_bond_atom_site_label_2
_geom_bond_distance
_ccdc_geom_bond_type
X1	C1	0.08957	. A
X1	C5	0.08916	. A
C1	C2	0.09024	. A
C1	H1	0.07271	. A
C2	C3	0.09200	. A
C3	C4	0.09152	. A
C3	C6	0.10452	. A
C4	C5	0.09022	. A
C4	Cl1	0.11585	. A
C5	F1	0.09038	. A
C6	C7	0.10272	. A
C6	N2	0.09857	. A
C6	H7	0.07347	. A
C7	C8	0.10158	. A
C7	H4	0.07217	. A
C7	H6	0.07316	. A
C8	N1	0.09798	. A
C8	H5	0.07315	. A
N1	N2	0.09646	. A
N1	H3	0.06841	. A
N2	H2	0.06844	. A
