data_tobacco_crystal_2_PM
_symmetry_space_group_name_H-M	'P1'
_cell_length_a	15.000000
_cell_length_b	15.000000
_cell_length_c	15.000000
_cell_angle_alpha	90.000000
_cell_angle_beta	90.000000
_cell_angle_gamma	90.000000
_symmetry_Int_Tables_number 1

loop_
_symmetry_equiv_pos_as_xyz
'x,y,z'

loop_
_atom_site_label
_atom_site_type_symbol
_atom_site_fract_x
_atom_site_fract_y
_atom_site_fract_z
X1	C	0.017618	-0.446150	-0.019303
C1	C	-0.066248	-0.413950	-0.020570
C2	C	-0.080715	-0.326150	-0.010303
C3	C	-0.012782	-0.267817	0.001763
C4	C	0.071218	-0.300350	-0.001170
C5	C	0.087018	-0.388750	-0.011170
C6	C	-0.032182	-0.171617	0.027763
H1	H	-0.150182	-0.305283	-0.008703
H2	H	-0.123515	-0.457950	-0.027437
O1	O	0.174018	-0.420150	-0.010103
H3	H	0.126285	-0.254283	0.008497
H4	H	0.217285	-0.371617	-0.007570
O2	O	0.021618	-0.099550	-0.009570
C7	C	-0.121715	-0.042283	0.016963
C8	C	-0.127582	-0.141617	0.011363
C9	C	0.003018	0.073717	0.002630
H5	H	-0.174515	-0.168817	0.060163
H6	H	-0.160782	-0.016417	0.072963
H7	H	-0.148582	-0.014283	-0.045037
H8	H	-0.150715	-0.159817	-0.055570
H9	H	-0.006182	-0.024683	0.099963
C10	C	-0.021982	-0.021883	0.028297
H10	H	-0.019982	-0.170017	0.100230
C11	C	-0.063382	0.134383	0.006697
C12	C	-0.049182	0.221450	-0.000503
C13	C	0.033552	0.254717	-0.011770
C14	C	0.100885	0.195317	-0.022237
C15	C	0.085752	0.105983	-0.015370
C16	C	0.035818	0.355317	-0.003503
H11	H	-0.106382	0.265450	0.007163
H12	H	-0.132248	0.116317	0.020430
H13	H	0.141818	0.060050	-0.020037
H14	H	0.168885	0.218450	-0.032503
C17	C	0.115552	0.415517	-0.011570
N1	N	0.067418	0.497650	-0.029903
N2	N	-0.013315	0.481250	-0.068903
N3	N	-0.027848	0.398717	-0.066437
H15	H	0.157885	0.400850	-0.069037
H16	H	0.155218	0.420250	0.049430
H17	H	0.009152	0.368050	0.063963

loop_
_geom_bond_atom_site_label_1
_geom_bond_atom_site_label_2
_geom_bond_distance
_ccdc_geom_bond_type
X1	C1	0.08984	. A
X1	C5	0.09043	. A
X1	N1	0.07583	. A
X1	N2	0.09321	. A
C1	C2	0.08957	. A
C1	H2	0.07254	. A
C2	C3	0.09035	. A
C2	H1	0.07255	. A
C3	C4	0.09013	. A
C3	C6	0.10152	. A
C4	C5	0.09036	. A
C4	H3	0.07244	. A
C5	O1	0.09250	. A
C5	N1	0.11679	. A
C6	O2	0.09737	. A
C6	C8	0.10134	. A
C6	H10	0.07350	. A
O1	H4	0.06507	. A
O2	C10	0.09678	. A
C7	C8	0.09966	. A
C7	H6	0.07302	. A
C7	H7	0.07314	. A
C7	C10	0.10243	. A
C8	H5	0.07297	. A
C8	H8	0.07312	. A
C9	C10	0.10209	. A
C9	C11	0.09003	. A
C9	C15	0.09061	. A
H9	C10	0.07344	. A
C11	C12	0.08851	. A
C11	H12	0.07251	. A
C12	C13	0.08988	. A
C12	H11	0.07257	. A
C13	C14	0.09040	. A
C13	C16	0.10096	. A
C14	C15	0.09087	. A
C14	H14	0.07256	. A
C15	H13	0.07263	. A
C16	C17	0.10023	. A
C16	N3	0.09949	. A
C16	H17	0.07365	. A
C17	N1	0.09695	. A
C17	H15	0.07287	. A
C17	H16	0.07292	. A
N1	N2	0.09115	. A
N2	N3	0.08384	. A
