data_tobacco_crystal_2_PM
_symmetry_space_group_name_H-M	'P1'
_cell_length_a	15.000000
_cell_length_b	15.000000
_cell_length_c	15.000000
_cell_angle_alpha	90.000000
_cell_angle_beta	90.000000
_cell_angle_gamma	90.000000
_symmetry_Int_Tables_number 1

loop_
_symmetry_equiv_pos_as_xyz
'x,y,z'

loop_
_atom_site_label
_atom_site_type_symbol
_atom_site_fract_x
_atom_site_fract_y
_atom_site_fract_z
X1	C	-0.028821	-0.176248	0.008991
C1	C	-0.106954	-0.134648	-0.008476
C2	C	-0.107554	-0.044715	-0.007609
C3	C	-0.034154	0.006952	0.003124
C4	C	0.047179	-0.035048	0.009724
C5	C	0.046113	-0.125982	0.020724
C6	C	-0.056887	0.106085	0.017391
H1	H	-0.172354	-0.012382	-0.014743
C7	C	-0.197287	-0.178315	-0.023409
N1	N	0.126113	-0.171115	0.052391
C8	C	0.139446	0.010752	0.008124
C9	C	0.006913	0.182885	0.018457
N2	N	-0.055487	0.254685	0.007324
N3	N	-0.129421	0.226885	-0.037943
N4	N	-0.127754	0.142418	-0.042876
H2	H	0.047646	0.187685	-0.041009
H3	H	0.046379	0.189685	0.079324
H4	H	-0.088021	0.105885	0.084057
C10	C	0.163446	0.081018	-0.061543
H5	H	0.229179	0.067085	-0.090476
H6	H	0.115846	0.084285	-0.116609
H7	H	0.171713	0.146152	-0.029809
H8	H	0.188846	-0.040182	-0.009876
H9	H	0.157313	0.033352	0.075191
H10	H	0.174513	-0.129715	0.076124
H11	H	0.110846	-0.211315	0.105924
H12	H	-0.250354	-0.140048	0.009324
H13	H	-0.204354	-0.245448	0.003124
H14	H	-0.212087	-0.180648	-0.094943

loop_
_geom_bond_atom_site_label_1
_geom_bond_atom_site_label_2
_geom_bond_distance
_ccdc_geom_bond_type
X1	C1	0.09022	. A
X1	C5	0.09099	. A
C1	C2	0.08994	. A
C1	C7	0.10144	. A
C2	C3	0.09040	. A
C2	H1	0.07277	. A
C3	C4	0.09178	. A
C3	C6	0.10270	. A
C4	C5	0.09160	. A
C4	C8	0.10302	. A
C5	N1	0.09716	. A
C6	C9	0.09985	. A
C6	N4	0.09987	. A
C6	H4	0.07358	. A
C7	H12	0.07316	. A
C7	H13	0.07253	. A
C7	H14	0.07309	. A
N1	H10	0.06797	. A
N1	H11	0.06867	. A
C8	C10	0.10182	. A
C8	H8	0.07320	. A
C8	H9	0.07299	. A
C9	N2	0.09578	. A
C9	H2	0.07224	. A
C9	H3	0.07286	. A
N2	N3	0.09104	. A
N3	N4	0.08463	. A
C10	H5	0.07316	. A
C10	H6	0.07286	. A
C10	H7	0.07292	. A
