data_tobacco_crystal_2_PM
_symmetry_space_group_name_H-M	'P1'
_cell_length_a	15.000000
_cell_length_b	15.000000
_cell_length_c	15.000000
_cell_angle_alpha	90.000000
_cell_angle_beta	90.000000
_cell_angle_gamma	90.000000
_symmetry_Int_Tables_number 1

loop_
_symmetry_equiv_pos_as_xyz
'x,y,z'

loop_
_atom_site_label
_atom_site_type_symbol
_atom_site_fract_x
_atom_site_fract_y
_atom_site_fract_z
C1	C	0.001872	-0.064771	0.002490
C2	C	-0.078061	-0.027504	0.022223
C3	C	-0.085394	0.062229	0.032823
C4	C	-0.010728	0.112162	0.024490
C5	C	0.069672	0.074496	0.009023
C6	C	0.078006	-0.015304	-0.002643
C7	C	-0.227461	0.112162	-0.014710
N1	N	-0.156061	-0.081638	0.035290
C8	C	0.173406	-0.049304	-0.018643
O1	O	0.147206	0.126229	0.003823
C9	C	0.198072	-0.147838	-0.017777
H1	H	0.269939	-0.154904	-0.029043
H2	H	0.184072	-0.178438	0.046823
H3	H	0.164672	-0.184904	-0.070910
H4	H	0.216006	-0.019571	0.033157
H5	H	0.196272	-0.022104	-0.082643
H6	H	-0.212461	-0.047371	0.050557
H7	H	-0.167194	-0.127838	-0.013043
H8	H	-0.199661	0.153162	-0.067977
H9	H	-0.286394	0.145962	0.012023
H10	H	-0.249394	0.048362	-0.042243
O2	O	-0.166328	0.100962	0.057490
H11	H	0.139939	0.185762	0.029423

loop_
_geom_bond_atom_site_label_1
_geom_bond_atom_site_label_2
_geom_bond_distance
_ccdc_geom_bond_type
C1	C2	0.09037	. A
C1	C6	0.09094	. A
C2	C3	0.09065	. A
C2	N1	0.09584	. A
C3	C4	0.09021	. A
C3	O2	0.09305	. A
C4	C5	0.09012	. A
C5	C6	0.09094	. A
C5	O1	0.09335	. A
C6	C8	0.10253	. A
C7	H8	0.07274	. A
C7	H9	0.07301	. A
C7	H10	0.07287	. A
C7	O2	0.09527	. A
N1	H6	0.06774	. A
N1	H7	0.06778	. A
C8	C9	0.10158	. A
C8	H4	0.07336	. A
C8	H5	0.07320	. A
O1	H11	0.06521	. A
C9	H1	0.07309	. A
C9	H2	0.07284	. A
C9	H3	0.07289	. A
