data_tobacco_crystal_2_PM
_symmetry_space_group_name_H-M	'P1'
_cell_length_a	15.000000
_cell_length_b	15.000000
_cell_length_c	15.000000
_cell_angle_alpha	90.000000
_cell_angle_beta	90.000000
_cell_angle_gamma	90.000000
_symmetry_Int_Tables_number 1

loop_
_symmetry_equiv_pos_as_xyz
'x,y,z'

loop_
_atom_site_label
_atom_site_type_symbol
_atom_site_fract_x
_atom_site_fract_y
_atom_site_fract_z
X1	C	-0.017343	-0.563975	-0.004761
C1	C	-0.097743	-0.523109	-0.006695
C2	C	-0.104009	-0.434109	0.001305
C3	C	-0.030143	-0.383109	0.011505
C4	C	0.049724	-0.424575	0.014305
C5	C	0.056524	-0.513709	0.006105
C6	C	-0.037543	-0.282509	0.016505
H1	H	-0.169943	-0.403709	-0.001295
H2	H	-0.158876	-0.561442	-0.015161
H3	H	0.123191	-0.540975	0.008505
H4	H	0.111057	-0.386709	0.022905
C7	C	0.042257	-0.230509	-0.017361
N1	N	-0.002543	-0.155242	-0.056295
N2	N	-0.090076	-0.174242	-0.074561
N3	N	-0.109409	-0.248442	-0.041561
C8	C	0.025057	-0.069042	-0.042695
H5	H	0.087591	-0.212442	0.037105
H6	H	0.080191	-0.264975	-0.069295
H7	H	-0.053143	-0.262775	0.085305
C9	C	-0.028343	-0.004509	-0.012695
C10	C	-0.009609	0.089358	-0.007628
H8	H	-0.095609	-0.023975	0.006972
H9	H	0.094191	-0.057642	-0.060695
C11	C	-0.080943	0.143891	-0.008228
C12	C	-0.070809	0.232225	-0.001895
C13	C	0.010924	0.269558	0.006572
C14	C	0.082657	0.214691	0.005372
C15	C	0.072591	0.125558	-0.000828
C16	C	0.017924	0.368225	0.025039
H10	H	-0.131209	0.271891	-0.001161
H11	H	-0.148209	0.117225	-0.013161
H12	H	0.131591	0.083625	0.001039
H13	H	0.149791	0.241158	0.012305
C17	C	0.100191	0.422091	-0.000228
C18	C	0.069724	0.514958	0.028439
N4	N	-0.029143	0.513691	0.018905
N5	N	-0.050676	0.426025	-0.014895
H14	H	-0.112609	0.406958	0.005705
H15	H	-0.047743	0.563691	-0.024161
H16	H	0.114791	0.418691	-0.071961
H17	H	0.085057	0.525291	0.099172
H18	H	0.159924	0.400958	0.036105
H19	H	0.010724	0.371958	0.098039

loop_
_geom_bond_atom_site_label_1
_geom_bond_atom_site_label_2
_geom_bond_distance
_ccdc_geom_bond_type
X1	C1	0.09021	. A
X1	C5	0.09001	. A
X1	C16	0.08203	. A
X1	C17	0.11844	. A
X1	C18	0.12212	. A
X1	N4	0.08205	. A
X1	N5	0.03625	. A
X1	H14	0.10015	. A
X1	H19	0.12434	. A
C1	C2	0.08958	. A
C1	H2	0.07265	. A
C1	N4	0.08195	. A
C1	N5	0.06978	. A
C1	H14	0.07256	. A
C1	H15	0.10168	. A
C2	C3	0.09034	. A
C2	H1	0.07265	. A
C2	N4	0.09295	. A
C2	H15	0.06180	. A
C3	C4	0.09003	. A
C3	C6	0.10100	. A
C3	N4	0.10347	. A
C3	H15	0.06642	. A
C4	C5	0.08977	. A
C4	H4	0.07259	. A
C4	C18	0.06524	. A
C4	N4	0.10026	. A
C4	H15	0.10544	. A
C4	H17	0.10471	. A
C5	H3	0.07207	. A
C5	C16	0.12565	. A
C5	C17	0.07790	. A
C5	C18	0.03866	. A
C5	N4	0.09085	. A
C5	N5	0.12476	. A
C5	H16	0.11857	. A
C5	H17	0.10486	. A
C6	C7	0.10109	. A
C6	N3	0.09847	. A
C6	H7	0.07325	. A
H2	H14	0.05979	. A
H3	C17	0.04438	. A
H3	C18	0.07990	. A
H3	H18	0.07405	. A
C7	N1	0.09585	. A
C7	H5	0.07313	. A
C7	H6	0.07297	. A
N1	N2	0.09142	. A
N1	C8	0.09153	. A
N2	N3	0.08348	. A
C8	C9	0.08897	. A
C8	H9	0.07234	. A
C9	C10	0.09585	. A
C9	H8	0.07274	. A
C10	C11	0.08979	. A
C10	C15	0.09008	. A
C11	C12	0.08914	. A
C11	H11	0.07253	. A
C12	C13	0.09025	. A
C12	H10	0.07226	. A
C13	C14	0.09032	. A
C13	C16	0.10062	. A
C14	C15	0.08991	. A
C14	H13	0.07249	. A
C15	H12	0.07241	. A
C16	C17	0.10153	. A
C16	N5	0.09819	. A
C16	H19	0.07345	. A
C17	C18	0.10185	. A
C17	H16	0.07328	. A
C17	H18	0.07304	. A
C18	N4	0.09933	. A
C18	H17	0.07311	. A
N4	N5	0.09639	. A
N4	H15	0.06856	. A
N5	H14	0.06800	. A
