data_tobacco_crystal_2_PM
_symmetry_space_group_name_H-M	'P1'
_cell_length_a	15.000000
_cell_length_b	15.000000
_cell_length_c	15.000000
_cell_angle_alpha	90.000000
_cell_angle_beta	90.000000
_cell_angle_gamma	90.000000
_symmetry_Int_Tables_number 1

loop_
_symmetry_equiv_pos_as_xyz
'x,y,z'

loop_
_atom_site_label
_atom_site_type_symbol
_atom_site_fract_x
_atom_site_fract_y
_atom_site_fract_z
X1	C	0.004243	-0.380440	0.000314
C1	C	-0.073357	-0.334774	0.000381
C2	C	-0.073890	-0.244974	0.000314
C3	C	0.003176	-0.197774	0.000181
C4	C	0.080376	-0.245574	-0.000086
C5	C	0.081243	-0.334440	0.000048
C6	C	0.005910	-0.099374	-0.000019
H1	H	-0.138757	-0.212774	0.000381
H2	H	-0.137024	-0.369574	0.000448
H3	H	0.146976	-0.364240	-0.000019
H4	H	0.145443	-0.214507	-0.000352
C7	C	-0.068424	-0.047507	-0.000152
C8	C	-0.062557	0.042026	-0.000419
C9	C	0.018110	0.081693	-0.000552
C10	C	0.091776	0.031560	-0.000286
C11	C	0.085710	-0.056907	-0.000019
N1	N	0.034976	0.169826	-0.000952
H5	H	-0.123424	0.081426	-0.000552
H6	H	-0.135224	-0.075307	-0.000152
H7	H	0.149576	-0.089907	0.000181
H8	H	0.156976	0.063160	-0.000286
N2	N	-0.027424	0.222360	0.000514
N3	N	0.013243	0.303026	0.000514
N4	N	-0.043824	0.361426	0.000114
C12	C	-0.006757	0.443560	0.000114
C13	C	-0.060624	0.513826	0.000114
H9	H	-0.132224	0.505026	0.000114
H10	H	0.065776	0.449160	0.000114

loop_
_geom_bond_atom_site_label_1
_geom_bond_atom_site_label_2
_geom_bond_distance
_ccdc_geom_bond_type
X1	C1	0.09004	. A
X1	C5	0.08969	. A
X1	C13	0.12405	. A
C1	C2	0.08980	. A
C1	H2	0.07256	. A
C2	C3	0.09037	. A
C2	H1	0.07242	. A
C3	C4	0.09080	. A
C3	C6	0.09844	. A
C4	C5	0.08887	. A
C4	H4	0.07210	. A
C5	H3	0.07217	. A
C6	C7	0.09064	. A
C6	C11	0.09040	. A
C7	C8	0.08973	. A
C7	H6	0.07235	. A
C8	C9	0.08989	. A
C8	H5	0.07251	. A
C9	C10	0.08911	. A
C9	N1	0.08973	. A
C10	C11	0.08867	. A
C10	H8	0.07245	. A
C11	H7	0.07189	. A
N1	N2	0.08158	. A
N2	N3	0.09034	. A
N3	N4	0.08165	. A
N4	C12	0.09011	. A
C12	C13	0.08854	. A
C12	H10	0.07275	. A
C13	H9	0.07214	. A
