data_tobacco_crystal_2_PM
_symmetry_space_group_name_H-M	'P1'
_cell_length_a	15.000000
_cell_length_b	15.000000
_cell_length_c	15.000000
_cell_angle_alpha	90.000000
_cell_angle_beta	90.000000
_cell_angle_gamma	90.000000
_symmetry_Int_Tables_number 1

loop_
_symmetry_equiv_pos_as_xyz
'x,y,z'

loop_
_atom_site_label
_atom_site_type_symbol
_atom_site_fract_x
_atom_site_fract_y
_atom_site_fract_z
X1	C	0.037706	-0.227800	0.011818
C1	C	-0.044094	-0.191067	0.000818
C2	C	-0.054627	-0.100533	-0.004048
C3	C	0.016306	-0.043067	0.004885
C4	C	0.096906	-0.083333	0.016352
C5	C	0.107306	-0.172000	0.018952
C6	C	0.012906	0.058867	0.003752
N1	N	-0.143561	-0.068267	-0.020448
Cl1	Cl	-0.139361	-0.258733	-0.011448
F1	F	0.191106	-0.203733	0.028685
H1	H	0.158173	-0.045867	0.024352
H2	H	-0.146827	-0.023733	-0.071515
H3	H	-0.189027	-0.117800	-0.030782
C7	C	-0.063561	0.106667	0.013885
C8	C	-0.066627	0.196400	0.010818
C9	C	0.008773	0.243600	0.000418
C10	C	0.086506	0.199533	-0.006715
C11	C	0.087839	0.109600	-0.006182
H4	H	-0.130827	0.229667	0.017485
H5	H	-0.127494	0.074933	0.025752
H6	H	0.153639	0.080533	-0.013582
H7	H	0.148839	0.236133	-0.013248

loop_
_geom_bond_atom_site_label_1
_geom_bond_atom_site_label_2
_geom_bond_distance
_ccdc_geom_bond_type
X1	C1	0.09034	. A
X1	C5	0.08949	. A
C1	C2	0.09127	. A
C1	Cl1	0.11749	. A
C2	C3	0.09173	. A
C2	N1	0.09602	. A
C3	C4	0.09083	. A
C3	C6	0.10200	. A
C4	C5	0.08931	. A
C4	H1	0.07226	. A
C5	F1	0.09013	. A
C6	C7	0.09075	. A
C6	C11	0.09104	. A
N1	H2	0.06784	. A
N1	H3	0.06803	. A
C7	C8	0.08984	. A
C7	H5	0.07236	. A
C8	C9	0.08956	. A
C8	H4	0.07261	. A
C9	C10	0.08964	. A
C10	C11	0.08994	. A
C10	H7	0.07258	. A
C11	H6	0.07231	. A
