data_tobacco_crystal_2_PM
_symmetry_space_group_name_H-M	'P1'
_cell_length_a	15.000000
_cell_length_b	15.000000
_cell_length_c	15.000000
_cell_angle_alpha	90.000000
_cell_angle_beta	90.000000
_cell_angle_gamma	90.000000
_symmetry_Int_Tables_number 1

loop_
_symmetry_equiv_pos_as_xyz
'x,y,z'

loop_
_atom_site_label
_atom_site_type_symbol
_atom_site_fract_x
_atom_site_fract_y
_atom_site_fract_z
X1	C	-0.037163	-0.275344	-0.007501
C1	C	-0.113297	-0.230477	-0.003434
C2	C	-0.112030	-0.140211	-0.003101
C3	C	-0.035363	-0.093544	-0.002568
C4	C	0.043237	-0.143077	0.001366
C5	C	0.042503	-0.237011	-0.006834
C6	C	-0.034430	0.009123	-0.001301
H1	H	-0.176697	-0.106877	-0.003701
H2	H	-0.178630	-0.262611	0.000032
C7	C	0.129837	-0.289411	0.001232
C8	C	0.132970	-0.091011	0.001032
C9	C	-0.092497	0.078389	-0.010768
C10	C	-0.067230	0.178523	0.011832
H3	H	-0.162897	0.064723	-0.022101
H4	H	0.030237	0.036523	0.014299
C11	C	0.029303	0.220389	-0.006301
C12	C	0.018637	0.325323	-0.019768
N1	N	-0.075630	0.328589	0.010099
N2	N	-0.117897	0.250656	-0.031168
H5	H	-0.183430	0.248189	-0.012568
H6	H	-0.103030	0.388856	-0.008101
H7	H	0.076970	0.205323	0.048032
X2	C	0.072370	0.328589	0.030566
H8	H	0.055570	0.187723	-0.065634
H9	H	-0.086297	0.183389	0.082766
H10	H	0.163303	-0.344544	-0.036034
H11	H	0.185170	-0.246944	0.021232
H12	H	0.109370	-0.330744	0.056299
H13	H	0.123903	-0.024944	-0.025834
H14	H	0.198970	-0.083944	0.034699
H15	H	0.164170	-0.133611	-0.046768

loop_
_geom_bond_atom_site_label_1
_geom_bond_atom_site_label_2
_geom_bond_distance
_ccdc_geom_bond_type
X1	C1	0.08846	. A
X1	C5	0.08841	. A
C1	C2	0.09028	. A
C1	H2	0.07289	. A
C2	C3	0.08975	. A
C2	H1	0.07275	. A
C3	C4	0.09299	. A
C3	C6	0.10268	. A
C4	C5	0.09429	. A
C4	C8	0.10375	. A
C5	C7	0.10217	. A
C6	C9	0.09088	. A
C6	H4	0.07194	. A
C7	H10	0.07449	. A
C7	H11	0.07256	. A
C7	H12	0.07183	. A
C8	H13	0.07189	. A
C8	H14	0.07443	. A
C8	H15	0.07123	. A
C9	C10	0.10572	. A
C9	H3	0.07260	. A
C10	C11	0.10677	. A
C10	N2	0.09808	. A
C10	H9	0.07361	. A
C11	C12	0.10633	. A
C11	H7	0.07383	. A
C11	X2	0.12215	. A
C11	H8	0.07265	. A
C12	N1	0.09894	. A
C12	X2	0.07370	. A
N1	N2	0.09779	. A
N1	H6	0.06866	. A
N2	H5	0.06817	. A
