data_tobacco_crystal_2_PM
_symmetry_space_group_name_H-M	'P1'
_cell_length_a	15.000000
_cell_length_b	15.000000
_cell_length_c	15.000000
_cell_angle_alpha	90.000000
_cell_angle_beta	90.000000
_cell_angle_gamma	90.000000
_symmetry_Int_Tables_number 1

loop_
_symmetry_equiv_pos_as_xyz
'x,y,z'

loop_
_atom_site_label
_atom_site_type_symbol
_atom_site_fract_x
_atom_site_fract_y
_atom_site_fract_z
X1	C	0.035147	-0.204725	0.014169
C1	C	-0.039986	-0.158992	-0.005831
C2	C	-0.034653	-0.069792	-0.019297
C3	C	0.038147	-0.019058	0.003369
C4	C	0.111481	-0.067125	0.029769
C5	C	0.109547	-0.157525	0.031103
C6	C	0.029881	0.083008	0.002503
O1	O	-0.108053	-0.032392	-0.062697
C7	C	-0.132053	-0.201392	-0.007697
H1	H	0.170014	-0.192058	0.050769
Br1	Br	0.223947	-0.021525	0.067036
H2	H	-0.092053	-0.019058	-0.124297
H3	H	-0.184186	-0.152192	0.008036
H4	H	-0.147319	-0.231792	-0.071831
H5	H	-0.140119	-0.249925	0.046303
C8	C	-0.051253	0.124342	0.011169
C9	C	-0.062319	0.213475	0.009369
C10	C	0.009014	0.267475	0.003969
C11	C	0.090414	0.230608	-0.000564
C12	C	0.099481	0.140608	-0.003431
H6	H	-0.129453	0.240942	0.013703
H7	H	-0.112453	0.086608	0.019369
H8	H	0.167414	0.118408	-0.011031
H9	H	0.149414	0.272075	-0.003964

loop_
_geom_bond_atom_site_label_1
_geom_bond_atom_site_label_2
_geom_bond_distance
_ccdc_geom_bond_type
X1	C1	0.09020	. A
X1	C5	0.08972	. A
C1	C2	0.09037	. A
C1	C7	0.10138	. A
C2	C3	0.09158	. A
C2	O1	0.09311	. A
C3	C4	0.09157	. A
C3	C6	0.10240	. A
C4	C5	0.09043	. A
C5	H1	0.07236	. A
C6	C8	0.09147	. A
C6	C12	0.09054	. A
O1	H2	0.06503	. A
C7	H3	0.07339	. A
C7	H4	0.07260	. A
C7	H5	0.07305	. A
C8	C9	0.08984	. A
C8	H7	0.07236	. A
C9	C10	0.08963	. A
C9	H6	0.07266	. A
C10	C11	0.08947	. A
C11	C12	0.09050	. A
C11	H9	0.07219	. A
C12	H8	0.07187	. A
