data_tobacco_crystal_2_PM
_symmetry_space_group_name_H-M	'P1'
_cell_length_a	15.000000
_cell_length_b	15.000000
_cell_length_c	15.000000
_cell_angle_alpha	90.000000
_cell_angle_beta	90.000000
_cell_angle_gamma	90.000000
_symmetry_Int_Tables_number 1

loop_
_symmetry_equiv_pos_as_xyz
'x,y,z'

loop_
_atom_site_label
_atom_site_type_symbol
_atom_site_fract_x
_atom_site_fract_y
_atom_site_fract_z
X1	C	0.021053	-0.229494	-0.014819
C1	C	-0.055681	-0.183161	-0.008219
C2	C	-0.058814	-0.093228	-0.002753
C3	C	0.019053	-0.044894	-0.004019
C4	C	0.095653	-0.092294	-0.012686
C5	C	0.097919	-0.182828	-0.017886
C6	C	0.022986	0.057306	0.010314
C7	C	-0.152081	-0.055494	0.007114
H1	H	-0.118547	-0.219894	-0.005486
Cl1	Cl	0.201986	-0.233028	-0.025486
F1	F	0.174453	-0.048161	-0.012819
C8	C	0.104186	0.116972	-0.013086
C9	C	0.065786	0.208172	0.010047
N1	N	-0.025347	0.202106	-0.026153
N2	N	-0.048347	0.109372	-0.032819
H2	H	-0.107681	0.097972	-0.002553
H3	H	-0.066881	0.239639	0.013114
H4	H	0.162719	0.102306	0.028114
H5	H	0.063319	0.213106	0.083114
H6	H	0.123719	0.111772	-0.083553
H7	H	0.013386	0.064106	0.082847
H8	H	-0.203747	-0.106694	-0.000686
H9	H	-0.161281	-0.026428	0.073447
H10	H	-0.167814	-0.007228	-0.045086

loop_
_geom_bond_atom_site_label_1
_geom_bond_atom_site_label_2
_geom_bond_distance
_ccdc_geom_bond_type
X1	C1	0.08988	. A
X1	C5	0.08998	. A
C1	C2	0.09015	. A
C1	H1	0.07286	. A
C2	C3	0.09166	. A
C2	C7	0.10109	. A
C3	C4	0.09050	. A
C3	C6	0.10328	. A
C4	C5	0.09071	. A
C4	F1	0.09032	. A
C5	Cl1	0.11579	. A
C6	C8	0.10345	. A
C6	N2	0.09828	. A
C6	H7	0.07348	. A
C7	H8	0.07316	. A
C7	H9	0.07300	. A
C7	H10	0.07282	. A
C8	C9	0.10162	. A
C8	H4	0.07307	. A
C8	H6	0.07331	. A
C9	N1	0.09825	. A
C9	H5	0.07327	. A
N1	N2	0.09578	. A
N1	H3	0.06838	. A
N2	H2	0.06758	. A
