data_tobacco_crystal_2_PM
_symmetry_space_group_name_H-M	'P1'
_cell_length_a	15.000000
_cell_length_b	15.000000
_cell_length_c	15.000000
_cell_angle_alpha	90.000000
_cell_angle_beta	90.000000
_cell_angle_gamma	90.000000
_symmetry_Int_Tables_number 1

loop_
_symmetry_equiv_pos_as_xyz
'x,y,z'

loop_
_atom_site_label
_atom_site_type_symbol
_atom_site_fract_x
_atom_site_fract_y
_atom_site_fract_z
C1	C	0.024409	-0.065576	-0.030424
C2	C	-0.057458	-0.030709	-0.048624
C3	C	-0.071724	0.058558	-0.038091
C4	C	0.001009	0.110424	-0.020824
C5	C	0.083142	0.075491	-0.008224
C6	C	0.096076	-0.014709	-0.008024
C7	C	-0.164991	0.101891	-0.042691
Br1	Br	-0.149724	-0.106909	-0.092958
C8	C	0.188142	-0.051842	0.018309
Cl1	Cl	0.175476	0.146891	0.005642
C9	C	-0.240724	0.056291	0.008509
H1	H	-0.216324	0.015958	0.064176
H2	H	-0.286324	0.106358	0.035842
H3	H	-0.281124	0.014691	-0.035624
H4	H	-0.184058	0.112424	-0.112491
H5	H	-0.162658	0.168224	-0.012358
C10	C	0.196542	-0.142776	0.063442
H6	H	0.144342	-0.153309	0.113309
H7	H	0.260742	-0.147376	0.097976
H8	H	0.195609	-0.197176	0.014909
H9	H	0.217276	-0.006842	0.068242
H10	H	0.232342	-0.049976	-0.040024

loop_
_geom_bond_atom_site_label_1
_geom_bond_atom_site_label_2
_geom_bond_distance
_ccdc_geom_bond_type
C1	C2	0.09082	. A
C1	C6	0.09069	. A
C2	C3	0.09101	. A
C3	C4	0.09099	. A
C3	C7	0.10294	. A
C4	C5	0.09014	. A
C5	C6	0.09112	. A
C5	Cl1	0.11754	. A
C6	C8	0.10271	. A
C7	C9	0.10216	. A
C7	H4	0.07312	. A
C7	H5	0.07298	. A
C8	C10	0.10186	. A
C8	H9	0.07326	. A
C8	H10	0.07321	. A
C9	H1	0.07294	. A
C9	H2	0.07303	. A
C9	H3	0.07287	. A
C10	H6	0.07296	. A
C10	H7	0.07304	. A
C10	H8	0.07291	. A
