data_tobacco_crystal_2_PM
_symmetry_space_group_name_H-M	'P1'
_cell_length_a	15.000000
_cell_length_b	15.000000
_cell_length_c	15.000000
_cell_angle_alpha	90.000000
_cell_angle_beta	90.000000
_cell_angle_gamma	90.000000
_symmetry_Int_Tables_number 1

loop_
_symmetry_equiv_pos_as_xyz
'x,y,z'

loop_
_atom_site_label
_atom_site_type_symbol
_atom_site_fract_x
_atom_site_fract_y
_atom_site_fract_z
X1	C	-0.051487	-0.203701	-0.013853
C1	C	-0.132087	-0.164568	-0.022520
C2	C	-0.140287	-0.075901	-0.016520
C3	C	-0.068287	-0.025101	-0.004320
C4	C	0.014379	-0.062034	0.000280
C5	C	0.023646	-0.154101	-0.001453
C6	C	-0.082287	0.068432	0.001280
H1	H	-0.206687	-0.046434	-0.021520
H2	H	-0.192554	-0.203434	-0.033720
C7	C	0.119113	-0.187434	0.015480
C8	C	0.096046	-0.000768	0.005747
C9	C	-0.091954	0.147566	-0.004053
C10	C	-0.098354	0.240499	-0.029720
C11	C	-0.016154	0.294432	-0.012120
N1	N	-0.058554	0.378766	0.003214
N2	N	-0.145087	0.368966	0.030014
N3	N	-0.166621	0.287699	0.022814
H3	H	0.019846	0.275832	0.048747
H4	H	0.030379	0.296232	-0.068253
H5	H	-0.117154	0.244299	-0.100120
H6	H	0.143913	-0.017434	-0.046920
H7	H	0.128646	-0.005168	0.070814
H8	H	0.080979	0.069699	-0.005453
C12	C	0.144913	-0.284034	0.032480
H9	H	0.186779	-0.308434	-0.022186
H10	H	0.185713	-0.288034	0.093014
H11	H	0.089446	-0.329501	0.042414
H12	H	0.142179	-0.152568	0.075747
H13	H	0.161579	-0.163768	-0.039320

loop_
_geom_bond_atom_site_label_1
_geom_bond_atom_site_label_2
_geom_bond_distance
_ccdc_geom_bond_type
X1	C1	0.09002	. A
X1	C5	0.09088	. A
C1	C2	0.08925	. A
C1	H2	0.07275	. A
C2	C3	0.08896	. A
C2	H1	0.07282	. A
C3	C4	0.09066	. A
C3	C6	0.09474	. A
C4	C5	0.09255	. A
C4	C8	0.10224	. A
C5	C7	0.10253	. A
C6	C9	0.07990	. A
C7	C12	0.10142	. A
C7	H12	0.07335	. A
C7	H13	0.07326	. A
C8	H6	0.07309	. A
C8	H7	0.07291	. A
C8	H8	0.07292	. A
C9	C10	0.09662	. A
C10	C11	0.09988	. A
C10	N3	0.09822	. A
C10	H5	0.07297	. A
C11	N1	0.09563	. A
C11	H3	0.07312	. A
C11	H4	0.07294	. A
N1	N2	0.09112	. A
N2	N3	0.08438	. A
C12	H9	0.07305	. A
C12	H10	0.07311	. A
C12	H11	0.07240	. A
