data_tobacco_crystal_2_PM
_symmetry_space_group_name_H-M	'P1'
_cell_length_a	15.000000
_cell_length_b	15.000000
_cell_length_c	15.000000
_cell_angle_alpha	90.000000
_cell_angle_beta	90.000000
_cell_angle_gamma	90.000000
_symmetry_Int_Tables_number 1

loop_
_symmetry_equiv_pos_as_xyz
'x,y,z'

loop_
_atom_site_label
_atom_site_type_symbol
_atom_site_fract_x
_atom_site_fract_y
_atom_site_fract_z
X1	C	0.004659	-0.419669	0.012108
C1	C	-0.081141	-0.394535	0.003041
C2	C	-0.103341	-0.308402	-0.009225
C3	C	-0.039475	-0.243935	-0.012492
C4	C	0.045992	-0.269869	0.000575
C5	C	0.068259	-0.356069	0.013108
C6	C	-0.061208	-0.147069	-0.033425
Cl1	Cl	-0.216475	-0.287269	-0.024825
H1	H	-0.133941	-0.444535	0.003975
H2	H	0.138325	-0.371402	0.022441
H3	H	0.100325	-0.221602	-0.000425
C7	C	0.006459	-0.073135	-0.014825
N1	N	-0.055341	-0.000069	-0.004892
N2	N	-0.135208	-0.030869	0.026841
N3	N	-0.138408	-0.113802	0.018108
C8	C	-0.033341	0.090198	0.020575
H4	H	0.042459	-0.081735	0.048108
H5	H	0.052459	-0.061735	-0.070092
H6	H	-0.079008	-0.144202	-0.104492
C9	C	0.049192	0.133465	-0.018025
N4	N	0.016859	0.224398	-0.032492
N5	N	-0.074075	0.220265	-0.045025
N6	N	-0.104208	0.148731	-0.014492
C10	C	0.041792	0.294398	0.031908
H7	H	0.107525	0.132065	0.025775
H8	H	0.067459	0.105865	-0.083159
H9	H	-0.031341	0.093531	0.093641
C11	C	0.121592	0.348798	0.004241
N7	N	0.080992	0.434198	-0.011359
N8	N	-0.005808	0.437531	0.013375
N9	N	-0.029608	0.362531	0.041441
H10	H	0.169792	0.355998	0.058641
H11	H	0.156059	0.325331	-0.055559
H12	H	0.051725	0.262598	0.096908

loop_
_geom_bond_atom_site_label_1
_geom_bond_atom_site_label_2
_geom_bond_distance
_ccdc_geom_bond_type
X1	C1	0.08986	. A
X1	C5	0.08995	. A
C1	C2	0.08979	. A
C1	H1	0.07272	. A
C2	C3	0.09081	. A
C2	Cl1	0.11614	. A
C3	C4	0.09027	. A
C3	C6	0.10146	. A
C4	C5	0.08991	. A
C4	H3	0.07268	. A
C5	H2	0.07233	. A
C6	C7	0.10194	. A
C6	N3	0.09860	. A
C6	H6	0.07332	. A
C7	N1	0.09621	. A
C7	H4	0.07301	. A
C7	H5	0.07280	. A
N1	N2	0.09129	. A
N1	C8	0.09634	. A
N2	N3	0.08345	. A
C8	C9	0.10086	. A
C8	N6	0.09838	. A
C8	H9	0.07317	. A
C9	N4	0.09759	. A
C9	H7	0.07296	. A
C9	H8	0.07306	. A
N4	N5	0.09189	. A
N4	C10	0.09833	. A
N5	N6	0.08341	. A
C10	C11	0.10046	. A
C10	N9	0.09915	. A
C10	H12	0.07304	. A
C11	N7	0.09584	. A
C11	H10	0.07304	. A
C11	H11	0.07290	. A
N7	N8	0.09032	. A
N8	N9	0.08354	. A
