data_tobacco_crystal_2_PM
_symmetry_space_group_name_H-M	'P1'
_cell_length_a	15.000000
_cell_length_b	15.000000
_cell_length_c	15.000000
_cell_angle_alpha	90.000000
_cell_angle_beta	90.000000
_cell_angle_gamma	90.000000
_symmetry_Int_Tables_number 1

loop_
_symmetry_equiv_pos_as_xyz
'x,y,z'

loop_
_atom_site_label
_atom_site_type_symbol
_atom_site_fract_x
_atom_site_fract_y
_atom_site_fract_z
X1	C	-0.012276	-0.104582	-0.004542
C1	C	-0.089942	-0.058049	0.004858
C2	C	-0.088209	0.032418	0.005991
C3	C	-0.011476	0.078018	-0.001142
C4	C	0.065058	0.032018	-0.009676
C5	C	0.065458	-0.058049	-0.011676
C6	C	-0.011476	0.173084	0.001391
H1	H	-0.150609	0.069351	0.012991
C7	C	-0.176209	-0.098316	0.015458
N1	N	0.151458	-0.102382	-0.021342
F1	F	0.143591	0.076084	-0.015942
C8	C	-0.011742	0.253218	0.002991
N2	N	-0.248542	-0.123516	0.026458
H2	H	0.196658	-0.057316	-0.047009
H3	H	0.178258	-0.111982	0.041191

loop_
_geom_bond_atom_site_label_1
_geom_bond_atom_site_label_2
_geom_bond_distance
_ccdc_geom_bond_type
X1	C1	0.09103	. A
X1	C5	0.09088	. A
C1	C2	0.09049	. A
C1	C7	0.09579	. A
C2	C3	0.08954	. A
C2	H1	0.07285	. A
C3	C4	0.08970	. A
C3	C6	0.09510	. A
C4	C5	0.09009	. A
C4	F1	0.09027	. A
C5	N1	0.09724	. A
C6	C8	0.08015	. A
C7	N2	0.07738	. A
N1	H2	0.06880	. A
N1	H3	0.06871	. A
