data_tobacco_crystal_2_PM
_symmetry_space_group_name_H-M	'P1'
_cell_length_a	15.000000
_cell_length_b	15.000000
_cell_length_c	15.000000
_cell_angle_alpha	90.000000
_cell_angle_beta	90.000000
_cell_angle_gamma	90.000000
_symmetry_Int_Tables_number 1

loop_
_symmetry_equiv_pos_as_xyz
'x,y,z'

loop_
_atom_site_label
_atom_site_type_symbol
_atom_site_fract_x
_atom_site_fract_y
_atom_site_fract_z
X1	C	0.042624	-0.221475	0.003133
C1	C	-0.039509	-0.186208	0.009467
C2	C	-0.054709	-0.098275	0.003067
C3	C	0.013291	-0.038675	-0.012000
C4	C	0.097291	-0.074141	-0.012867
C5	C	0.111624	-0.164141	-0.005200
C6	C	-0.005043	0.062725	-0.031600
N1	N	-0.147643	-0.078075	0.009800
H1	H	-0.097376	-0.229541	0.018667
C7	C	0.200157	-0.198941	-0.007200
C8	C	0.174424	-0.018275	-0.025267
N2	N	0.266424	-0.238608	-0.005067
H2	H	-0.161109	-0.030008	0.055933
H3	H	-0.172309	-0.053075	-0.048200
N3	N	0.240491	0.020792	-0.035067
O1	O	0.065891	0.124659	-0.009200
C9	C	-0.069976	0.201259	0.008267
C10	C	-0.087509	0.103592	0.010867
H4	H	-0.148576	0.088392	-0.025600
H5	H	-0.087709	0.227859	-0.057533
H6	H	-0.108443	0.237459	0.058533
H7	H	-0.093643	0.083392	0.080733
H8	H	0.043357	0.205325	0.096267
C11	C	0.029491	0.206859	0.024533
H9	H	-0.011509	0.067125	-0.104467

loop_
_geom_bond_atom_site_label_1
_geom_bond_atom_site_label_2
_geom_bond_distance
_ccdc_geom_bond_type
X1	C1	0.08961	. A
X1	C5	0.09010	. A
C1	C2	0.08947	. A
C1	H1	0.07288	. A
C2	C3	0.09167	. A
C2	N1	0.09534	. A
C3	C4	0.09118	. A
C3	C6	0.10489	. A
C4	C5	0.09146	. A
C4	C8	0.09604	. A
C5	C7	0.09515	. A
C6	O1	0.09679	. A
C6	C10	0.10136	. A
C6	H9	0.07329	. A
N1	H2	0.06797	. A
N1	H3	0.06780	. A
C7	N2	0.07726	. A
C8	N3	0.07738	. A
O1	C11	0.09602	. A
C9	C10	0.09926	. A
C9	H5	0.07316	. A
C9	H6	0.07292	. A
C9	C11	0.10094	. A
C10	H4	0.07273	. A
C10	H7	0.07299	. A
H8	C11	0.07308	. A
