data_tobacco_crystal_2_PM
_symmetry_space_group_name_H-M	'P1'
_cell_length_a	15.000000
_cell_length_b	15.000000
_cell_length_c	15.000000
_cell_angle_alpha	90.000000
_cell_angle_beta	90.000000
_cell_angle_gamma	90.000000
_symmetry_Int_Tables_number 1

loop_
_symmetry_equiv_pos_as_xyz
'x,y,z'

loop_
_atom_site_label
_atom_site_type_symbol
_atom_site_fract_x
_atom_site_fract_y
_atom_site_fract_z
X1	C	-0.003292	-0.247117	-0.001330
C1	C	-0.076825	-0.203451	0.026403
C2	C	-0.077292	-0.113317	0.027270
C3	C	-0.007492	-0.062917	-0.001463
C4	C	0.063975	-0.108784	-0.035330
C5	C	0.065508	-0.198984	-0.032930
C6	C	-0.014159	0.037216	0.003203
H1	H	-0.137692	-0.081184	0.052003
Cl1	Cl	-0.173559	-0.256784	0.061603
H2	H	0.123641	-0.232784	-0.060197
Br1	Br	0.164841	-0.058184	-0.093463
C7	C	-0.092092	0.082016	-0.007597
C8	C	-0.095692	0.172016	-0.006797
C9	C	-0.020692	0.221349	0.001270
C10	C	0.057908	0.178816	0.013470
C11	C	0.058775	0.088683	0.018070
H3	H	-0.160292	0.203816	-0.015463
H4	H	-0.154759	0.046883	-0.017663
H5	H	0.122508	0.057749	0.032470
C12	C	0.142508	0.222883	0.017937
N1	N	0.214175	0.252083	0.018537

loop_
_geom_bond_atom_site_label_1
_geom_bond_atom_site_label_2
_geom_bond_distance
_ccdc_geom_bond_type
X1	C1	0.08991	. A
X1	C5	0.08972	. A
C1	C2	0.09014	. A
C1	Cl1	0.11593	. A
C2	C3	0.09076	. A
C2	H1	0.07275	. A
C3	C4	0.09142	. A
C3	C6	0.10046	. A
C4	C5	0.09024	. A
C5	H2	0.07256	. A
C6	C7	0.09054	. A
C6	C11	0.09049	. A
C7	C8	0.09008	. A
C7	H4	0.07255	. A
C8	C9	0.09013	. A
C8	H3	0.07252	. A
C9	C10	0.09020	. A
C10	C11	0.09025	. A
C10	C12	0.09549	. A
C11	H5	0.07229	. A
C12	N1	0.07739	. A
