data_tobacco_crystal_2_PM
_symmetry_space_group_name_H-M	'P1'
_cell_length_a	15.000000
_cell_length_b	15.000000
_cell_length_c	15.000000
_cell_angle_alpha	90.000000
_cell_angle_beta	90.000000
_cell_angle_gamma	90.000000
_symmetry_Int_Tables_number 1

loop_
_symmetry_equiv_pos_as_xyz
'x,y,z'

loop_
_atom_site_label
_atom_site_type_symbol
_atom_site_fract_x
_atom_site_fract_y
_atom_site_fract_z
X1	C	0.008842	-0.277706	0.000000
C1	C	-0.071891	-0.240640	0.000000
C2	C	-0.076758	-0.153240	0.000000
C3	C	-0.001891	-0.101106	0.000000
C4	C	0.083642	-0.136240	0.000000
C5	C	0.083575	-0.227040	0.000000
C6	C	-0.027958	-0.007373	0.000000
H1	H	-0.145225	-0.129573	0.000000
H2	H	-0.134891	-0.276573	0.000000
H3	H	0.148309	-0.258106	0.000000
C7	C	0.182109	-0.090373	0.000000
C8	C	-0.111291	0.026494	0.000000
C9	C	-0.118425	0.113960	0.000000
C10	C	-0.045291	0.167694	0.000000
C11	C	0.036242	0.134894	0.000000
C12	C	0.040442	0.047760	0.000000
N1	N	-0.051958	0.253627	0.000000
H4	H	-0.185891	0.141427	0.000000
H5	H	-0.173425	-0.009706	0.000000
H6	H	0.105709	0.027827	0.000000
H7	H	0.097442	0.172427	0.000000
H8	H	0.195975	-0.019106	0.000000
H9	H	0.256442	-0.087306	0.000000
H10	H	0.216375	-0.153840	0.000000
N2	N	-0.129225	0.282027	0.000000
C13	C	-0.111025	0.366427	0.000000
C14	C	-0.069958	0.433360	0.000000

loop_
_geom_bond_atom_site_label_1
_geom_bond_atom_site_label_2
_geom_bond_distance
_ccdc_geom_bond_type
X1	C1	0.08884	. A
X1	C5	0.09029	. A
C1	C2	0.08754	. A
C1	H2	0.07253	. A
C2	C3	0.09123	. A
C2	H1	0.07244	. A
C3	C4	0.09247	. A
C3	C6	0.09729	. A
C4	C5	0.09080	. A
C4	C7	0.10863	. A
C5	H3	0.07180	. A
C6	C8	0.08995	. A
C6	C12	0.08785	. A
C7	H8	0.07260	. A
C7	H9	0.07440	. A
C7	H10	0.07213	. A
C8	C9	0.08776	. A
C8	H5	0.07191	. A
C9	C10	0.09075	. A
C9	H4	0.07284	. A
C10	C11	0.08788	. A
C10	N1	0.08619	. A
C11	C12	0.08723	. A
C11	H7	0.07179	. A
C12	H6	0.06824	. A
N1	N2	0.08232	. A
H9	H10	0.07767	. A
N2	C13	0.08634	. A
C13	C14	0.07853	. A
