data_tobacco_crystal_2_PM
_symmetry_space_group_name_H-M	'P1'
_cell_length_a	15.000000
_cell_length_b	15.000000
_cell_length_c	15.000000
_cell_angle_alpha	90.000000
_cell_angle_beta	90.000000
_cell_angle_gamma	90.000000
_symmetry_Int_Tables_number 1

loop_
_symmetry_equiv_pos_as_xyz
'x,y,z'

loop_
_atom_site_label
_atom_site_type_symbol
_atom_site_fract_x
_atom_site_fract_y
_atom_site_fract_z
C1	C	-0.020589	-0.241540	0.008873
C2	C	-0.100256	-0.204006	0.028006
C3	C	-0.108189	-0.115073	0.034206
C4	C	-0.037123	-0.062606	0.018606
C5	C	0.042211	-0.100206	-0.003994
C6	C	0.053344	-0.190940	-0.006860
C7	C	-0.047256	0.032060	0.027073
H1	H	-0.172323	-0.086006	0.051340
H2	H	-0.159123	-0.244806	0.040073
C8	C	0.147877	-0.225140	-0.026727
N1	N	0.115811	-0.042473	-0.026394
H3	H	0.156344	-0.065406	-0.075460
H4	H	0.099011	0.022127	-0.038860
C9	C	-0.050056	0.111594	0.035673
C10	C	-0.051256	0.208594	0.047606
C11	C	0.177477	-0.321273	-0.014327
H5	H	0.140744	-0.367073	-0.057394
H6	H	0.172744	-0.342073	0.055340
H7	H	0.248144	-0.326806	-0.032460
H8	H	0.163677	-0.207540	-0.095994
H9	H	0.193677	-0.187073	0.016073
O1	O	0.011611	0.250127	-0.011194
C12	C	-0.118456	0.341394	-0.005727
C13	C	-0.140923	0.247727	0.022940
H10	H	-0.188323	0.245527	0.078340
H11	H	-0.129056	0.387927	0.049606
H12	H	-0.161189	0.363594	-0.060594
H13	H	-0.171123	0.211860	-0.033194
H14	H	-0.013656	0.344060	-0.106460
C14	C	-0.021056	0.336994	-0.034127
H15	H	-0.032723	0.226460	0.116006

loop_
_geom_bond_atom_site_label_1
_geom_bond_atom_site_label_2
_geom_bond_distance
_ccdc_geom_bond_type
C1	C2	0.09012	. A
C1	C6	0.09096	. A
C2	C3	0.08950	. A
C2	H2	0.07263	. A
C3	C4	0.08970	. A
C3	H1	0.07247	. A
C4	C5	0.09065	. A
C4	C7	0.09558	. A
C5	C6	0.09146	. A
C5	N1	0.09619	. A
C6	C8	0.10247	. A
C7	C9	0.08005	. A
C8	C11	0.10135	. A
C8	H8	0.07319	. A
C8	H9	0.07334	. A
N1	H3	0.06765	. A
N1	H4	0.06790	. A
C9	C10	0.09774	. A
C10	O1	0.09558	. A
C10	C13	0.10090	. A
C10	H15	0.07308	. A
C11	H5	0.07281	. A
C11	H6	0.07286	. A
C11	H7	0.07317	. A
O1	C14	0.09560	. A
C12	C13	0.10050	. A
C12	H11	0.07307	. A
C12	H12	0.07300	. A
C12	C14	0.10155	. A
C13	H10	0.07294	. A
C13	H13	0.07314	. A
H14	C14	0.07305	. A
