data_tobacco_crystal_2_PM
_symmetry_space_group_name_H-M	'P1'
_cell_length_a	15.000000
_cell_length_b	15.000000
_cell_length_c	15.000000
_cell_angle_alpha	90.000000
_cell_angle_beta	90.000000
_cell_angle_gamma	90.000000
_symmetry_Int_Tables_number 1

loop_
_symmetry_equiv_pos_as_xyz
'x,y,z'

loop_
_atom_site_label
_atom_site_type_symbol
_atom_site_fract_x
_atom_site_fract_y
_atom_site_fract_z
X1	C	0.003957	-0.171862	-0.004214
C1	C	-0.074310	-0.127062	-0.003281
C2	C	-0.076310	-0.037729	0.006319
C3	C	0.000157	0.010071	0.014852
C4	C	0.078824	-0.035262	0.013586
C5	C	0.080157	-0.124929	0.004052
N1	N	-0.000043	0.100871	0.028786
Cl1	Cl	-0.180310	0.014005	0.008452
H1	H	-0.137043	-0.163329	-0.009548
H2	H	0.144824	-0.157062	0.003852
Br1	Br	0.189824	0.023871	0.026186
N2	N	-0.002510	0.147871	-0.039881
N3	N	0.018090	0.234871	-0.016014
N4	N	-0.045310	0.285671	-0.033148

loop_
_geom_bond_atom_site_label_1
_geom_bond_atom_site_label_2
_geom_bond_distance
_ccdc_geom_bond_type
X1	C1	0.09019	. A
X1	C5	0.08987	. A
C1	C2	0.08987	. A
C1	H1	0.07273	. A
C2	C3	0.09058	. A
C2	Cl1	0.11618	. A
C3	C4	0.09080	. A
C3	N1	0.09186	. A
C4	C5	0.09018	. A
C4	Br1	0.12640	. A
C5	H2	0.07221	. A
N1	N2	0.08325	. A
N2	N3	0.09254	. A
N3	N4	0.08303	. A
