data_tobacco_crystal_2_PM
_symmetry_space_group_name_H-M	'P1'
_cell_length_a	15.000000
_cell_length_b	15.000000
_cell_length_c	15.000000
_cell_angle_alpha	90.000000
_cell_angle_beta	90.000000
_cell_angle_gamma	90.000000
_symmetry_Int_Tables_number 1

loop_
_symmetry_equiv_pos_as_xyz
'x,y,z'

loop_
_atom_site_label
_atom_site_type_symbol
_atom_site_fract_x
_atom_site_fract_y
_atom_site_fract_z
X1	C	0.071015	-0.170145	0.006724
C1	C	-0.006718	-0.121945	0.002991
C2	C	-0.000185	-0.031679	0.002458
C3	C	0.078082	0.011855	-0.000276
C4	C	0.153148	-0.036879	0.001458
C5	C	0.149882	-0.125945	0.007124
N1	N	0.087148	0.102255	-0.005342
H1	H	-0.059785	0.009388	0.002124
C6	C	-0.099985	-0.163345	-0.005209
H2	H	0.214615	-0.157479	0.010658
H3	H	0.216882	-0.002679	-0.001342
C7	C	-0.179118	-0.098479	-0.009409
H4	H	-0.170985	-0.049879	-0.063409
H5	H	-0.186652	-0.062279	0.053658
H6	H	-0.241385	-0.134079	-0.022342
H7	H	-0.101185	-0.201079	-0.067942
H8	H	-0.113052	-0.209612	0.049791
N2	N	0.029282	0.147721	0.032591
N3	N	0.061415	0.233321	0.040524
N4	N	0.032415	0.279988	-0.021209
N5	N	0.065082	0.365321	-0.011142
N6	N	0.000082	0.415655	-0.002476

loop_
_geom_bond_atom_site_label_1
_geom_bond_atom_site_label_2
_geom_bond_distance
_ccdc_geom_bond_type
X1	C1	0.09154	. A
X1	C5	0.09041	. A
C1	C2	0.09050	. A
C1	C6	0.10237	. A
C2	C3	0.08960	. A
C2	H1	0.07238	. A
C3	C4	0.08952	. A
C3	N1	0.09099	. A
C4	C5	0.08931	. A
C4	H3	0.07238	. A
C5	H2	0.07209	. A
N1	N2	0.08279	. A
C6	C7	0.10241	. A
C6	H7	0.07322	. A
C6	H8	0.07305	. A
C7	H4	0.07310	. A
C7	H5	0.07311	. A
C7	H6	0.07288	. A
N2	N3	0.09178	. A
N3	N4	0.08264	. A
N4	N5	0.09193	. A
N5	N6	0.08267	. A
