data_tobacco_crystal_2_PM
_symmetry_space_group_name_H-M	'P1'
_cell_length_a	15.000000
_cell_length_b	15.000000
_cell_length_c	15.000000
_cell_angle_alpha	90.000000
_cell_angle_beta	90.000000
_cell_angle_gamma	90.000000
_symmetry_Int_Tables_number 1

loop_
_symmetry_equiv_pos_as_xyz
'x,y,z'

loop_
_atom_site_label
_atom_site_type_symbol
_atom_site_fract_x
_atom_site_fract_y
_atom_site_fract_z
X1	C	-0.032552	-0.449474	0.010467
C1	C	-0.107419	-0.399674	0.008867
C2	C	-0.103285	-0.310474	0.000400
C3	C	-0.024752	-0.266341	-0.007333
C4	C	0.050248	-0.316607	-0.002067
C5	C	0.046715	-0.406541	0.006400
C6	C	-0.023485	-0.165807	-0.028200
H1	H	-0.166485	-0.275274	-0.002867
H2	H	-0.172952	-0.430874	0.012467
H3	H	0.109581	-0.442007	0.007800
H4	H	0.115381	-0.285274	-0.007600
C7	C	0.049781	-0.101874	0.003867
C8	C	0.012581	-0.012207	-0.029133
N1	N	-0.085019	-0.022674	-0.020867
N2	N	-0.102352	-0.115474	0.002133
N3	N	0.043781	0.067126	0.020600
H5	H	-0.157685	-0.137541	-0.030933
H6	H	-0.104685	0.018393	0.029933
H7	H	0.114515	-0.116474	-0.026600
H8	H	0.028781	-0.005341	-0.100267
H9	H	0.057581	-0.103341	0.076600
H10	H	-0.023219	-0.163807	-0.101667
N4	N	0.045648	0.135793	-0.028133
C9	C	0.030915	0.219993	0.020400
C10	C	0.096448	0.293659	-0.004400
C11	C	0.049715	0.374259	0.035933
N5	N	-0.045952	0.357526	0.020133
N6	N	-0.053819	0.263326	-0.003933
C12	C	0.075848	0.463193	0.004200
H11	H	-0.105352	0.232659	0.028267
H12	H	-0.066485	0.396126	-0.032533
H13	H	0.162448	0.282593	0.024667
H14	H	0.059981	0.372859	0.108400
H15	H	0.104381	0.299793	-0.076933
H16	H	0.032381	0.208926	0.092867
C13	C	0.088781	0.540859	-0.010933

loop_
_geom_bond_atom_site_label_1
_geom_bond_atom_site_label_2
_geom_bond_distance
_ccdc_geom_bond_type
X1	C1	0.08993	. A
X1	C5	0.09024	. A
X1	C13	0.12358	. A
C1	C2	0.08970	. A
C1	H2	0.07267	. A
C2	C3	0.09042	. A
C2	H1	0.07242	. A
C3	C4	0.09044	. A
C3	C6	0.10268	. A
C4	C5	0.09040	. A
C4	H4	0.07249	. A
C5	H3	0.07219	. A
C5	C13	0.06955	. A
C6	C7	0.10239	. A
C6	N2	0.09835	. A
C6	H10	0.07349	. A
H3	C13	0.03282	. A
C7	C8	0.10253	. A
C7	H7	0.07302	. A
C7	H9	0.07317	. A
C8	N1	0.09851	. A
C8	N3	0.09869	. A
C8	H8	0.07328	. A
N1	N2	0.09717	. A
N1	H6	0.06822	. A
N2	H5	0.06813	. A
N3	N4	0.08422	. A
N4	C9	0.09830	. A
C9	C10	0.10167	. A
C9	N6	0.09823	. A
C9	H16	0.07332	. A
C10	C11	0.10152	. A
C10	H13	0.07296	. A
C10	H15	0.07322	. A
C11	N5	0.09840	. A
C11	C12	0.09797	. A
C11	H14	0.07320	. A
N5	N6	0.09754	. A
N5	H12	0.06845	. A
N6	H11	0.06807	. A
C12	C13	0.08018	. A
