data_tobacco_crystal_2_PM
_symmetry_space_group_name_H-M	'P1'
_cell_length_a	15.000000
_cell_length_b	15.000000
_cell_length_c	15.000000
_cell_angle_alpha	90.000000
_cell_angle_beta	90.000000
_cell_angle_gamma	90.000000
_symmetry_Int_Tables_number 1

loop_
_symmetry_equiv_pos_as_xyz
'x,y,z'

loop_
_atom_site_label
_atom_site_type_symbol
_atom_site_fract_x
_atom_site_fract_y
_atom_site_fract_z
X1	C	-0.005259	-0.206426	-0.007196
C1	C	-0.085859	-0.167359	-0.018063
C2	C	-0.097659	-0.079159	-0.007930
C3	C	-0.028593	-0.026159	0.013537
C4	C	0.053341	-0.064293	0.023404
C5	C	0.065341	-0.153626	0.012870
N1	N	-0.039059	0.064574	0.026937
H1	H	-0.163593	-0.050626	-0.016663
H2	H	-0.144593	-0.207626	-0.034730
Cl1	Cl	0.172341	-0.197293	0.028870
N2	N	0.127741	-0.006893	0.046070
N3	N	-0.027659	0.111574	-0.041063
C6	C	-0.000726	0.196974	-0.023063
C7	C	-0.053859	0.268041	-0.015530
H3	H	-0.125793	0.263974	-0.020396
H4	H	0.071207	0.205174	-0.017996
H5	H	0.175341	-0.008426	-0.002330
H6	H	0.107341	0.057574	0.053270

loop_
_geom_bond_atom_site_label_1
_geom_bond_atom_site_label_2
_geom_bond_distance
_ccdc_geom_bond_type
X1	C1	0.09023	. A
X1	C5	0.09041	. A
C1	C2	0.08956	. A
C1	H2	0.07314	. A
C2	C3	0.08967	. A
C2	H1	0.07237	. A
C3	C4	0.09091	. A
C3	N1	0.09231	. A
C4	C5	0.09075	. A
C4	N2	0.09666	. A
C5	Cl1	0.11667	. A
N1	N3	0.08344	. A
N2	H5	0.06790	. A
N2	H6	0.06800	. A
N3	C6	0.09134	. A
C6	C7	0.08905	. A
C6	H4	0.07258	. A
C7	H3	0.07221	. A
