data_tobacco_crystal_2_PM
_symmetry_space_group_name_H-M	'P1'
_cell_length_a	15.000000
_cell_length_b	15.000000
_cell_length_c	15.000000
_cell_angle_alpha	90.000000
_cell_angle_beta	90.000000
_cell_angle_gamma	90.000000
_symmetry_Int_Tables_number 1

loop_
_symmetry_equiv_pos_as_xyz
'x,y,z'

loop_
_atom_site_label
_atom_site_type_symbol
_atom_site_fract_x
_atom_site_fract_y
_atom_site_fract_z
X1	C	-0.012296	-0.236096	0.008922
C1	C	-0.089762	-0.189829	0.015256
C2	C	-0.088829	-0.100029	0.011589
C3	C	-0.012496	-0.053229	0.000922
C4	C	0.064438	-0.100296	0.000322
C5	C	0.066571	-0.190629	0.004256
C6	C	-0.015962	0.046771	-0.017611
H1	H	-0.152162	-0.065029	0.013922
N1	N	-0.175162	-0.231096	0.023322
C7	C	0.156904	-0.234762	-0.003544
H2	H	0.126971	-0.064162	-0.007478
C8	C	0.058904	0.110571	0.009789
C9	C	0.017171	0.198838	-0.020344
N2	N	-0.077562	0.189371	0.004789
N3	N	-0.093829	0.094571	0.018789
C10	C	0.057571	0.286104	0.007922
H3	H	-0.149962	0.075438	-0.014878
H4	H	-0.087962	0.222104	0.063922
H5	H	0.121304	0.097104	-0.025678
H6	H	0.020438	0.199504	-0.093611
H7	H	0.071904	0.109104	0.081789
H8	H	-0.021229	0.050238	-0.090878
H9	H	0.155638	-0.291229	-0.049744
H10	H	0.207638	-0.188696	-0.028944
H11	H	0.179971	-0.257296	0.061989
C11	C	0.010104	0.362304	0.009389
H12	H	-0.060496	0.363171	-0.006411
H13	H	0.129104	0.288104	0.019722
H14	H	-0.178362	-0.295496	0.000656
H15	H	-0.228562	-0.195429	0.001856

loop_
_geom_bond_atom_site_label_1
_geom_bond_atom_site_label_2
_geom_bond_distance
_ccdc_geom_bond_type
X1	C1	0.09045	. A
X1	C5	0.09115	. A
C1	C2	0.08988	. A
C1	N1	0.09519	. A
C2	C3	0.09017	. A
C2	H1	0.07240	. A
C3	C4	0.09019	. A
C3	C6	0.10176	. A
C4	C5	0.09044	. A
C4	H2	0.07264	. A
C5	C7	0.10084	. A
C6	C8	0.10211	. A
C6	N3	0.09835	. A
C6	H8	0.07354	. A
N1	H14	0.06835	. A
N1	H15	0.06771	. A
C7	H9	0.07297	. A
C7	H10	0.07308	. A
C7	H11	0.07304	. A
C8	C9	0.10218	. A
C8	H5	0.07303	. A
C8	H7	0.07318	. A
C9	N2	0.09847	. A
C9	C10	0.10023	. A
C9	H6	0.07334	. A
N2	N3	0.09720	. A
N2	H4	0.06838	. A
N3	H3	0.06819	. A
C10	C11	0.08979	. A
C10	H13	0.07253	. A
C11	H12	0.07235	. A
