data_tobacco_crystal_2_PM
_symmetry_space_group_name_H-M	'P1'
_cell_length_a	15.000000
_cell_length_b	15.000000
_cell_length_c	15.000000
_cell_angle_alpha	90.000000
_cell_angle_beta	90.000000
_cell_angle_gamma	90.000000
_symmetry_Int_Tables_number 1

loop_
_symmetry_equiv_pos_as_xyz
'x,y,z'

loop_
_atom_site_label
_atom_site_type_symbol
_atom_site_fract_x
_atom_site_fract_y
_atom_site_fract_z
X1	C	-0.027146	-0.432750	0.012650
C1	C	-0.104080	-0.386083	0.011517
C2	C	-0.103213	-0.297083	-0.000283
C3	C	-0.026213	-0.250750	-0.011683
C4	C	0.050720	-0.298417	-0.007950
C5	C	0.049920	-0.387617	0.003650
C6	C	-0.028213	-0.150950	-0.032750
H1	H	-0.167413	-0.263350	-0.002683
H2	H	-0.167946	-0.419883	0.018650
F1	F	0.128654	-0.431350	0.004650
H3	H	0.114854	-0.265817	-0.016483
C7	C	0.047454	-0.088150	-0.004483
C8	C	0.007254	0.001917	-0.031617
N1	N	-0.087680	-0.007817	-0.006683
N2	N	-0.105480	-0.102750	0.004183
C9	C	0.044720	0.087917	0.005583
H4	H	-0.161613	-0.119817	-0.030550
H5	H	-0.097746	0.023983	0.052983
H6	H	0.109520	-0.101750	-0.040417
H7	H	0.011054	0.006383	-0.104683
H8	H	0.060720	-0.091883	0.067383
H9	H	-0.033213	-0.147683	-0.105950
C10	C	0.008587	0.167317	-0.017083
C11	C	0.024920	0.256583	0.025383
H10	H	-0.045546	0.166383	-0.065750
H11	H	0.098254	0.084050	0.054117
C12	C	0.105987	0.309650	-0.003817
C13	C	0.082987	0.402783	0.029650
N3	N	-0.015880	0.407517	0.026717
N4	N	-0.047013	0.319317	0.001783
H12	H	-0.104080	0.302517	0.035317
H13	H	-0.034146	0.454917	-0.019483
H14	H	0.167387	0.284850	0.026983
H15	H	0.103120	0.410917	0.099450
H16	H	0.114987	0.308583	-0.076483
H17	H	0.025520	0.248317	0.098183

loop_
_geom_bond_atom_site_label_1
_geom_bond_atom_site_label_2
_geom_bond_distance
_ccdc_geom_bond_type
X1	C1	0.08999	. A
X1	C5	0.08976	. A
X1	H13	0.11705	. A
C1	C2	0.08978	. A
C1	H2	0.07261	. A
C2	C3	0.09059	. A
C2	H1	0.07256	. A
C3	C4	0.09058	. A
C3	C6	0.10202	. A
C4	C5	0.08995	. A
C4	H3	0.07245	. A
C5	F1	0.09007	. A
C6	C7	0.10231	. A
C6	N2	0.09827	. A
C6	H9	0.07344	. A
C7	C8	0.10229	. A
C7	H6	0.07300	. A
C7	H8	0.07318	. A
C8	N1	0.09863	. A
C8	C9	0.10091	. A
C8	H7	0.07330	. A
N1	N2	0.09720	. A
N1	H5	0.06836	. A
N2	H4	0.06818	. A
C9	C10	0.09013	. A
C9	H11	0.07236	. A
C10	C11	0.10019	. A
C10	H10	0.07280	. A
C11	C12	0.10120	. A
C11	N4	0.09832	. A
C11	H17	0.07327	. A
C12	C13	0.10160	. A
C12	H14	0.07303	. A
C12	H16	0.07323	. A
C13	N3	0.09902	. A
C13	H15	0.07310	. A
N3	N4	0.09680	. A
N3	H13	0.06866	. A
N4	H12	0.06829	. A
