data_tobacco_crystal_2_PM
_symmetry_space_group_name_H-M	'P1'
_cell_length_a	15.000000
_cell_length_b	15.000000
_cell_length_c	15.000000
_cell_angle_alpha	90.000000
_cell_angle_beta	90.000000
_cell_angle_gamma	90.000000
_symmetry_Int_Tables_number 1

loop_
_symmetry_equiv_pos_as_xyz
'x,y,z'

loop_
_atom_site_label
_atom_site_type_symbol
_atom_site_fract_x
_atom_site_fract_y
_atom_site_fract_z
C1	C	-0.011707	-0.130996	-0.003637
X1	C	0.045426	-0.334530	-0.021970
C2	C	-0.088841	-0.084530	-0.004570
C3	C	-0.089641	0.005470	-0.002504
C4	C	-0.011707	0.052270	-0.002504
C5	C	0.066093	0.004270	0.000163
C6	C	0.066293	-0.086463	0.002030
C7	C	-0.006107	0.150737	-0.005370
O1	O	-0.171241	0.048537	-0.001104
H1	H	-0.151907	-0.120396	-0.007904
N1	N	0.149226	-0.133596	0.008430
C8	C	0.150893	0.048204	0.000630
H2	H	0.202159	-0.102863	0.037696
C9	C	-0.069707	0.213737	-0.004304
H3	H	-0.140441	0.201204	-0.001704
H4	H	0.061426	0.177604	-0.009104
H5	H	-0.220641	0.009337	0.014430
N2	N	0.220426	0.082004	0.001296

loop_
_geom_bond_atom_site_label_1
_geom_bond_atom_site_label_2
_geom_bond_distance
_ccdc_geom_bond_type
C1	C2	0.09005	. A
C1	C6	0.09000	. A
C2	C3	0.09003	. A
C2	H1	0.07263	. A
C3	C4	0.09091	. A
C3	O1	0.09228	. A
C4	C5	0.09145	. A
C4	C7	0.09867	. A
C5	C6	0.09075	. A
C5	C8	0.09551	. A
C6	N1	0.09561	. A
C7	C9	0.08953	. A
C7	H4	0.07278	. A
O1	H5	0.06495	. A
N1	H2	0.06785	. A
C8	N2	0.07732	. A
C9	H3	0.07188	. A
