data_tobacco_crystal_2_PM
_symmetry_space_group_name_H-M	'P1'
_cell_length_a	15.000000
_cell_length_b	15.000000
_cell_length_c	15.000000
_cell_angle_alpha	90.000000
_cell_angle_beta	90.000000
_cell_angle_gamma	90.000000
_symmetry_Int_Tables_number 1

loop_
_symmetry_equiv_pos_as_xyz
'x,y,z'

loop_
_atom_site_label
_atom_site_type_symbol
_atom_site_fract_x
_atom_site_fract_y
_atom_site_fract_z
X1	C	0.004465	-0.351747	0.000337
C1	C	-0.075469	-0.311747	0.010604
C2	C	-0.081335	-0.223281	0.021537
C3	C	-0.009069	-0.168747	0.021471
C4	C	0.071665	-0.208814	0.009204
C5	C	0.078331	-0.299414	-0.000463
C6	C	-0.028469	-0.067347	0.034604
H1	H	-0.148202	-0.196347	0.030071
H2	H	-0.137402	-0.350014	0.010671
Cl1	Cl	0.183465	-0.348614	-0.015329
C7	C	0.151131	-0.155814	0.007137
O1	O	0.042998	-0.004814	0.020271
C8	C	-0.084469	0.056719	-0.051529
C9	C	-0.104869	-0.037214	-0.024663
C10	C	0.018665	0.162786	0.040671
H3	H	-0.168069	-0.040747	0.012071
H4	H	-0.089869	0.064586	-0.123996
H5	H	-0.136002	0.098986	-0.022863
H6	H	-0.112869	-0.078547	-0.084396
H7	H	0.052465	0.087119	-0.080396
C11	C	0.010398	0.077319	-0.021463
H8	H	-0.047335	-0.059281	0.104871
C12	C	0.105865	0.217053	0.029804
C13	C	0.081465	0.302186	-0.021329
N1	N	-0.015469	0.294519	-0.037196
N2	N	-0.048135	0.234053	0.029071
H9	H	-0.109802	0.211253	0.012471
H10	H	-0.041802	0.357519	-0.027263
H11	H	0.156131	0.179186	-0.007196
H12	H	0.115065	0.303786	-0.086129
H13	H	0.133731	0.233386	0.095404
H14	H	0.014731	0.139319	0.109737
N3	N	0.218065	-0.117281	0.004204

loop_
_geom_bond_atom_site_label_1
_geom_bond_atom_site_label_2
_geom_bond_distance
_ccdc_geom_bond_type
X1	C1	0.08997	. A
X1	C5	0.09053	. A
C1	C2	0.08933	. A
C1	H2	0.07280	. A
C2	C3	0.09053	. A
C2	H1	0.07259	. A
C3	C4	0.09096	. A
C3	C6	0.10407	. A
C4	C5	0.09136	. A
C4	C7	0.09554	. A
C5	Cl1	0.11702	. A
C6	O1	0.09604	. A
C6	C9	0.10128	. A
C6	H8	0.07320	. A
C7	N3	0.07729	. A
O1	C11	0.09773	. A
C8	C9	0.09981	. A
C8	H4	0.07309	. A
C8	H5	0.07255	. A
C8	C11	0.10163	. A
C9	H3	0.07319	. A
C9	H6	0.07308	. A
C10	C11	0.10599	. A
C10	C12	0.10328	. A
C10	N2	0.09837	. A
C10	H14	0.07305	. A
H7	C11	0.07307	. A
C12	C13	0.10226	. A
C12	H11	0.07300	. A
C12	H13	0.07312	. A
C13	N1	0.09852	. A
C13	H12	0.07301	. A
N1	N2	0.09547	. A
N1	H10	0.06900	. A
N2	H9	0.06781	. A
