data_tobacco_crystal_2_PM
_symmetry_space_group_name_H-M	'P1'
_cell_length_a	15.000000
_cell_length_b	15.000000
_cell_length_c	15.000000
_cell_angle_alpha	90.000000
_cell_angle_beta	90.000000
_cell_angle_gamma	90.000000
_symmetry_Int_Tables_number 1

loop_
_symmetry_equiv_pos_as_xyz
'x,y,z'

loop_
_atom_site_label
_atom_site_type_symbol
_atom_site_fract_x
_atom_site_fract_y
_atom_site_fract_z
X1	C	0.035967	-0.086997	-0.015973
C1	C	-0.045233	-0.044664	-0.012106
C2	C	-0.047300	0.045470	-0.013173
C3	C	0.026767	0.095670	-0.008039
C4	C	0.106100	0.053203	-0.005106
C5	C	0.112367	-0.037330	-0.013373
N1	N	0.028300	0.187470	-0.000239
H1	H	-0.110633	0.080870	-0.015239
C6	C	-0.134633	-0.093730	-0.000239
C7	C	0.206967	-0.072597	-0.020373
O1	O	0.182767	0.103936	0.008427
N2	N	-0.035567	0.233270	-0.027439
H2	H	0.166767	0.164670	0.025694
C8	C	-0.212167	-0.038864	0.037561
H3	H	-0.191033	0.002270	0.094161
H4	H	-0.240900	0.004736	-0.013506
H5	H	-0.265433	-0.082797	0.061294
H6	H	-0.124500	-0.147264	0.048627
H7	H	-0.156167	-0.123864	-0.063239
H8	H	0.229367	-0.098664	0.044094
H9	H	0.255633	-0.021464	-0.039373
H10	H	0.212567	-0.123330	-0.072439

loop_
_geom_bond_atom_site_label_1
_geom_bond_atom_site_label_2
_geom_bond_distance
_ccdc_geom_bond_type
X1	C1	0.09165	. A
X1	C5	0.09116	. A
C1	C2	0.09016	. A
C1	C6	0.10267	. A
C2	C3	0.08962	. A
C2	H1	0.07258	. A
C3	C4	0.09003	. A
C3	N1	0.09214	. A
C4	C5	0.09113	. A
C4	O1	0.09292	. A
C5	C7	0.10120	. A
N1	N2	0.08317	. A
C6	C8	0.10223	. A
C6	H6	0.07319	. A
C6	H7	0.07308	. A
C7	H8	0.07306	. A
C7	H9	0.07310	. A
C7	H10	0.07291	. A
O1	H2	0.06514	. A
C8	H3	0.07309	. A
C8	H4	0.07304	. A
C8	H5	0.07301	. A
