data_tobacco_crystal_2_PM
_symmetry_space_group_name_H-M	'P1'
_cell_length_a	15.000000
_cell_length_b	15.000000
_cell_length_c	15.000000
_cell_angle_alpha	90.000000
_cell_angle_beta	90.000000
_cell_angle_gamma	90.000000
_symmetry_Int_Tables_number 1

loop_
_symmetry_equiv_pos_as_xyz
'x,y,z'

loop_
_atom_site_label
_atom_site_type_symbol
_atom_site_fract_x
_atom_site_fract_y
_atom_site_fract_z
X1	C	0.048471	-0.280133	0.038149
C1	C	-0.031329	-0.238533	0.033016
C2	C	-0.031063	-0.150533	0.014816
C3	C	0.041404	-0.098933	0.002149
C4	C	0.120804	-0.142267	0.006816
C5	C	0.123737	-0.232000	0.022016
C6	C	0.022604	-0.002200	-0.027384
H1	H	-0.095196	-0.121000	0.006882
C7	C	-0.189929	-0.247067	0.003682
O1	O	0.205737	-0.275333	0.015082
H2	H	0.182071	-0.105733	-0.004584
O2	O	0.067737	0.074400	0.012016
C8	C	-0.077529	0.123400	-0.029184
C9	C	-0.075196	0.025200	-0.014184
C10	C	0.031337	0.245333	-0.002851
H3	H	-0.095329	0.012800	0.055416
H4	H	-0.115996	0.153733	0.025016
H5	H	-0.110596	0.141200	-0.091651
H6	H	-0.121796	-0.008333	-0.058984
H7	H	0.044071	0.146400	-0.099651
C11	C	0.020737	0.148533	-0.030184
H8	H	0.038671	-0.000800	-0.098918
H9	H	-0.206996	-0.180933	0.029682
H10	H	-0.181996	-0.244733	-0.068918
H11	H	-0.246263	-0.290200	0.019816
O3	O	-0.111729	-0.283000	0.043749
H12	H	0.233804	-0.261000	-0.042051
C12	C	0.120004	0.282800	0.022016
N1	N	0.086537	0.363800	0.063616
N2	N	0.004071	0.348400	0.101216
N3	N	-0.023396	0.273400	0.074816
H13	H	0.163604	0.295800	-0.034784
H14	H	0.154004	0.243533	0.073149
H15	H	0.004937	0.284000	-0.059784

loop_
_geom_bond_atom_site_label_1
_geom_bond_atom_site_label_2
_geom_bond_distance
_ccdc_geom_bond_type
X1	C1	0.09014	. A
X1	C5	0.09079	. A
C1	C2	0.08986	. A
C1	O3	0.09250	. A
C2	C3	0.08986	. A
C2	H1	0.07105	. A
C3	C4	0.09058	. A
C3	C6	0.10287	. A
C4	C5	0.09106	. A
C4	H2	0.07224	. A
C5	O1	0.09300	. A
C6	O2	0.09725	. A
C6	C9	0.10242	. A
C6	H8	0.07333	. A
C7	H9	0.07308	. A
C7	H10	0.07307	. A
C7	H11	0.07276	. A
C7	O3	0.09493	. A
O1	H12	0.06525	. A
O2	C11	0.09739	. A
C8	C9	0.09937	. A
C8	H4	0.07306	. A
C8	H5	0.07289	. A
C8	C11	0.10143	. A
C9	H3	0.07351	. A
C9	H6	0.07282	. A
C10	C11	0.10114	. A
C10	C12	0.09942	. A
C10	N3	0.09907	. A
C10	H15	0.07371	. A
H7	C11	0.07331	. A
C12	N1	0.09701	. A
C12	H13	0.07277	. A
C12	H14	0.07289	. A
N1	N2	0.09193	. A
N2	N3	0.08412	. A
