data_tobacco_crystal_2_PM
_symmetry_space_group_name_H-M	'P1'
_cell_length_a	15.000000
_cell_length_b	15.000000
_cell_length_c	15.000000
_cell_angle_alpha	90.000000
_cell_angle_beta	90.000000
_cell_angle_gamma	90.000000
_symmetry_Int_Tables_number 1

loop_
_symmetry_equiv_pos_as_xyz
'x,y,z'

loop_
_atom_site_label
_atom_site_type_symbol
_atom_site_fract_x
_atom_site_fract_y
_atom_site_fract_z
X1	C	0.031745	-0.231917	-0.009818
C1	C	-0.044655	-0.189451	0.012848
C2	C	-0.042855	-0.099584	0.017982
C3	C	0.032545	-0.051317	0.004048
C4	C	0.110078	-0.095717	-0.011485
C5	C	0.107745	-0.185717	-0.021018
C6	C	0.030011	0.045816	0.014448
H1	H	-0.103855	-0.064984	0.036182
C7	C	-0.203189	-0.205384	0.001848
H2	H	0.169011	-0.220517	-0.038752
C8	C	0.199745	-0.049784	-0.018485
C9	C	-0.039189	0.099616	-0.005552
C10	C	-0.042922	0.196283	0.020315
H3	H	-0.099522	0.072683	-0.035618
H4	H	0.089145	0.075283	0.044382
H5	H	-0.248922	-0.261851	-0.004018
H6	H	-0.230855	-0.158784	0.050715
H7	H	-0.197655	-0.173851	-0.063752
O1	O	-0.119989	-0.239184	0.031915
H8	H	0.196478	0.010816	-0.058818
H9	H	0.250478	-0.092651	-0.048685
H10	H	0.223411	-0.032317	0.048515
C11	C	0.039145	0.252283	0.006448
N1	N	-0.002855	0.337149	-0.007552
N2	N	-0.088922	0.328216	-0.035352
N3	N	-0.110989	0.246949	-0.030752
H11	H	0.076545	0.235483	-0.054085
H12	H	0.084211	0.253416	0.063782
H13	H	-0.063922	0.199016	0.090315

loop_
_geom_bond_atom_site_label_1
_geom_bond_atom_site_label_2
_geom_bond_distance
_ccdc_geom_bond_type
X1	C1	0.09030	. A
X1	C5	0.08964	. A
C1	C2	0.09003	. A
C1	O1	0.09226	. A
C2	C3	0.09060	. A
C2	H1	0.07245	. A
C3	C4	0.09069	. A
C3	C6	0.09772	. A
C4	C5	0.09053	. A
C4	C8	0.10099	. A
C5	H2	0.07266	. A
C6	C9	0.08991	. A
C6	H4	0.07253	. A
C7	H5	0.07290	. A
C7	H6	0.07297	. A
C7	H7	0.07300	. A
C7	O1	0.09470	. A
C8	H8	0.07287	. A
C8	H9	0.07296	. A
C8	H10	0.07317	. A
C9	C10	0.10014	. A
C9	H3	0.07259	. A
C10	C11	0.10032	. A
C10	N3	0.09904	. A
C10	H13	0.07313	. A
C11	N1	0.09572	. A
C11	H11	0.07311	. A
C11	H12	0.07293	. A
N1	N2	0.09089	. A
N2	N3	0.08433	. A
