data_tobacco_crystal_2_PM
_symmetry_space_group_name_H-M	'P1'
_cell_length_a	15.000000
_cell_length_b	15.000000
_cell_length_c	15.000000
_cell_angle_alpha	90.000000
_cell_angle_beta	90.000000
_cell_angle_gamma	90.000000
_symmetry_Int_Tables_number 1

loop_
_symmetry_equiv_pos_as_xyz
'x,y,z'

loop_
_atom_site_label
_atom_site_type_symbol
_atom_site_fract_x
_atom_site_fract_y
_atom_site_fract_z
X1	C	0.012909	-0.205860	0.015165
C1	C	-0.065625	-0.163393	0.011965
C2	C	-0.070491	-0.073460	0.005232
C3	C	0.004975	-0.022393	-0.002235
C4	C	0.084775	-0.067193	0.000498
C5	C	0.087442	-0.156393	0.012765
C6	C	-0.003025	0.078607	-0.020435
C7	C	-0.159625	-0.038793	-0.000102
F1	F	-0.142758	-0.210660	0.012232
H1	H	0.152642	-0.187393	0.016632
Br1	Br	0.197309	-0.015526	-0.024035
N1	N	-0.232158	-0.012326	-0.006235
C8	C	0.068909	0.147007	-0.000702
N2	N	0.013842	0.225407	0.004365
N3	N	-0.070891	0.204740	0.028165
N4	N	-0.079225	0.121140	0.027098
H2	H	0.100709	0.139007	0.064632
H3	H	0.118842	0.154674	-0.053102
H4	H	-0.018558	0.082807	-0.091902

loop_
_geom_bond_atom_site_label_1
_geom_bond_atom_site_label_2
_geom_bond_distance
_ccdc_geom_bond_type
X1	C1	0.08934	. A
X1	C5	0.08949	. A
C1	C2	0.09032	. A
C1	F1	0.09046	. A
C2	C3	0.09143	. A
C2	C7	0.09579	. A
C3	C4	0.09156	. A
C3	C6	0.10294	. A
C4	C5	0.09008	. A
C4	Br1	0.12623	. A
C5	H1	0.07230	. A
C6	C8	0.10120	. A
C6	N4	0.09937	. A
C6	H4	0.07326	. A
C7	N1	0.07745	. A
C8	N2	0.09594	. A
C8	H2	0.07310	. A
C8	H3	0.07279	. A
N2	N3	0.09041	. A
N3	N4	0.08402	. A
