data_tobacco_crystal_2_PM
_symmetry_space_group_name_H-M	'P1'
_cell_length_a	15.000000
_cell_length_b	15.000000
_cell_length_c	15.000000
_cell_angle_alpha	90.000000
_cell_angle_beta	90.000000
_cell_angle_gamma	90.000000
_symmetry_Int_Tables_number 1

loop_
_symmetry_equiv_pos_as_xyz
'x,y,z'

loop_
_atom_site_label
_atom_site_type_symbol
_atom_site_fract_x
_atom_site_fract_y
_atom_site_fract_z
X1	C	0.037656	-0.353286	0.027376
C1	C	-0.046611	-0.323019	0.034510
C2	C	-0.067877	-0.235553	0.026110
C3	C	-0.002544	-0.174219	0.008910
C4	C	0.082389	-0.206019	0.005576
C5	C	0.102789	-0.292953	0.014643
C6	C	-0.014077	-0.076686	-0.020624
Br1	Br	-0.191611	-0.213086	0.035176
H1	H	-0.100211	-0.371153	0.045110
H2	H	0.172456	-0.310619	0.008176
F1	F	0.150323	-0.149619	-0.012290
O1	O	0.028056	-0.006486	0.032576
C7	C	-0.086477	0.060181	-0.054224
C8	C	-0.105544	-0.037219	-0.037357
C9	C	0.030589	0.165781	0.017043
H3	H	-0.141011	-0.068153	-0.092957
H4	H	-0.090744	0.077514	-0.125024
H5	H	-0.137411	0.099314	-0.019957
H6	H	-0.146144	-0.039819	0.023110
H7	H	0.052189	0.066314	-0.079024
C10	C	0.009056	0.072914	-0.019824
H8	H	0.020456	-0.075353	-0.085624
C11	C	-0.032944	0.222247	0.047910
C12	C	-0.017544	0.310247	0.056776
C13	C	0.062989	0.344047	0.036110
C14	C	0.129256	0.288447	0.012243
C15	C	0.113056	0.200381	0.002576
H9	H	-0.072011	0.353781	0.076843
H10	H	-0.100277	0.199514	0.061710
H11	H	0.166523	0.158047	-0.021890
H12	H	0.195256	0.314514	-0.003690

loop_
_geom_bond_atom_site_label_1
_geom_bond_atom_site_label_2
_geom_bond_distance
_ccdc_geom_bond_type
X1	C1	0.08982	. A
X1	C5	0.08969	. A
C1	C2	0.09041	. A
C1	H1	0.07282	. A
C2	C3	0.09125	. A
C2	Br1	0.12608	. A
C3	C4	0.09075	. A
C3	C6	0.10256	. A
C4	C5	0.08975	. A
C4	F1	0.09008	. A
C5	H2	0.07216	. A
C6	O1	0.09764	. A
C6	C8	0.10101	. A
C6	H8	0.07362	. A
O1	C10	0.09701	. A
C7	C8	0.10067	. A
C7	H4	0.07302	. A
C7	H5	0.07280	. A
C7	C10	0.10233	. A
C8	H3	0.07284	. A
C8	H6	0.07288	. A
C9	C10	0.10221	. A
C9	C11	0.09043	. A
C9	C15	0.09059	. A
H7	C10	0.07354	. A
C11	C12	0.08978	. A
C11	H10	0.07239	. A
C12	C13	0.08975	. A
C12	H9	0.07256	. A
C13	C14	0.08973	. A
C14	C15	0.09006	. A
C14	H12	0.07273	. A
C15	H11	0.07245	. A
