data_tobacco_crystal_2_PM
_symmetry_space_group_name_H-M	'P1'
_cell_length_a	15.000000
_cell_length_b	15.000000
_cell_length_c	15.000000
_cell_angle_alpha	90.000000
_cell_angle_beta	90.000000
_cell_angle_gamma	90.000000
_symmetry_Int_Tables_number 1

loop_
_symmetry_equiv_pos_as_xyz
'x,y,z'

loop_
_atom_site_label
_atom_site_type_symbol
_atom_site_fract_x
_atom_site_fract_y
_atom_site_fract_z
X1	C	-0.026815	-0.283143	0.011373
C1	C	-0.101148	-0.232343	0.012240
C2	C	-0.096548	-0.143143	0.006506
C3	C	-0.018081	-0.098610	-0.000827
C4	C	0.057119	-0.149877	0.001906
C5	C	0.052985	-0.240810	0.007840
C6	C	-0.022081	0.003123	-0.018160
H1	H	-0.160015	-0.108077	0.005506
H2	H	-0.167215	-0.262677	0.015773
Cl1	Cl	0.153185	-0.301410	0.007440
N1	N	0.144185	-0.109877	-0.004627
H3	H	0.154052	-0.068477	0.048440
H4	H	0.147252	-0.067343	-0.057960
C7	C	0.050185	0.069390	0.011173
C8	C	0.008252	0.157190	-0.019494
N2	N	-0.086948	0.145923	0.000973
N3	N	-0.100948	0.050590	0.017973
C9	C	0.048785	0.243523	0.011306
H5	H	-0.157415	0.029990	-0.014160
H6	H	-0.102481	0.181523	0.057173
H7	H	0.113852	0.060190	-0.023027
H8	H	0.014652	0.158590	-0.092627
H9	H	0.061585	0.067723	0.083506
H10	H	-0.026615	0.007323	-0.091427
C10	C	0.005052	0.321857	0.007773
H11	H	-0.064081	0.325790	-0.013294
H12	H	0.119252	0.243057	0.028706

loop_
_geom_bond_atom_site_label_1
_geom_bond_atom_site_label_2
_geom_bond_distance
_ccdc_geom_bond_type
X1	C1	0.09004	. A
X1	C5	0.09040	. A
C1	C2	0.08950	. A
C1	H2	0.07278	. A
C2	C3	0.09052	. A
C2	H1	0.07252	. A
C3	C4	0.09105	. A
C3	C6	0.10328	. A
C4	C5	0.09122	. A
C4	N1	0.09604	. A
C5	Cl1	0.11710	. A
C6	C7	0.10234	. A
C6	N3	0.09889	. A
C6	H10	0.07353	. A
N1	H3	0.06802	. A
N1	H4	0.06829	. A
C7	C8	0.10202	. A
C7	H7	0.07285	. A
C7	H9	0.07325	. A
C8	N2	0.09802	. A
C8	C9	0.10022	. A
C8	H8	0.07343	. A
N2	N3	0.09784	. A
N2	H6	0.06832	. A
N3	H5	0.06816	. A
C9	C10	0.08978	. A
C9	H12	0.07258	. A
C10	H11	0.07238	. A
