data_tobacco_crystal_2_PM
_symmetry_space_group_name_H-M	'P1'
_cell_length_a	15.000000
_cell_length_b	15.000000
_cell_length_c	15.000000
_cell_angle_alpha	90.000000
_cell_angle_beta	90.000000
_cell_angle_gamma	90.000000
_symmetry_Int_Tables_number 1

loop_
_symmetry_equiv_pos_as_xyz
'x,y,z'

loop_
_atom_site_label
_atom_site_type_symbol
_atom_site_fract_x
_atom_site_fract_y
_atom_site_fract_z
O1	O	0.116283	-0.220589	0.000000
C1	C	0.035216	-0.159389	0.000000
O2	O	-0.045317	-0.220589	0.000000
C2	C	0.039016	-0.059522	0.000000
H1	H	0.202349	-0.239455	0.000000
C3	C	-0.029984	-0.051522	0.000000
C4	C	-0.097717	0.091811	0.000000
C5	C	0.020683	-0.307522	0.000000
C6	C	0.000083	-0.430922	0.000000
C7	C	0.051016	-0.125655	0.000000
C8	C	0.030349	0.140278	0.000000
C9	C	-0.085584	0.055545	0.000000
H2	H	-0.084184	-0.089322	0.000000
C10	C	0.073083	-0.073322	0.000000
C11	C	0.352816	-0.432455	0.000000
C12	C	0.028683	0.230278	0.000000
C13	C	0.034283	0.298145	0.000000
H3	H	0.068749	-0.073322	0.000000
H4	H	0.071349	-0.075122	0.000000
H5	H	0.094483	-0.087389	0.000000
O3	O	0.070949	-0.068522	0.000000
H6	H	0.719149	-1.146255	0.000000
H7	H	-1.537384	1.959078	0.000000
H8	H	-0.125384	-0.055255	0.000000
O4	O	0.119483	-0.186722	0.000000
N1	N	-0.081984	0.044945	0.000000
O5	O	-0.077451	0.399011	0.000000
O6	O	0.121683	0.384078	0.000000
H9	H	-0.084717	0.499678	0.000000

loop_
_geom_bond_atom_site_label_1
_geom_bond_atom_site_label_2
_geom_bond_distance
_ccdc_geom_bond_type
O1	C1	0.10157	. A
O1	H1	0.08811	. A
O1	C7	0.11520	. A
O1	O4	0.03402	. A
C1	O2	0.10115	. A
C1	C2	0.09994	. A
C1	C3	0.12604	. A
C1	C7	0.03725	. A
C1	C10	0.09403	. A
C1	H3	0.09237	. A
C1	H4	0.09169	. A
C1	H5	0.09326	. A
C1	O3	0.09764	. A
C1	O4	0.08859	. A
O2	C5	0.10915	. A
C2	C3	0.06946	. A
C2	C7	0.06721	. A
C2	C10	0.03676	. A
C2	H3	0.03278	. A
C2	H4	0.03590	. A
C2	H5	0.06207	. A
C2	O3	0.03318	. A
C3	C7	0.10980	. A
C3	C9	0.12064	. A
C3	H2	0.06608	. A
C3	C10	0.10535	. A
C3	H3	0.10111	. A
C3	H4	0.10405	. A
C3	O3	0.10235	. A
C3	H8	0.09547	. A
C3	N1	0.10959	. A
C4	C9	0.03824	. A
C4	N1	0.04944	. A
C5	C6	0.12511	. A
C6	H9	0.10958	. A
C7	C10	0.05680	. A
C7	H3	0.05526	. A
C7	H4	0.05447	. A
C7	H5	0.05791	. A
C7	O3	0.06051	. A
C7	O4	0.09174	. A
C8	C12	0.09002	. A
C9	H8	0.11773	. A
H2	H8	0.05346	. A
C10	O4	0.12253	. A
C12	C13	0.06810	. A
C13	O6	0.12257	. A
H3	H5	0.02933	. A
H5	O3	0.03016	. A
O5	H9	0.10093	. A
