data_tobacco_crystal_2_PM
_symmetry_space_group_name_H-M	'P1'
_cell_length_a	15.000000
_cell_length_b	15.000000
_cell_length_c	15.000000
_cell_angle_alpha	90.000000
_cell_angle_beta	90.000000
_cell_angle_gamma	90.000000
_symmetry_Int_Tables_number 1

loop_
_symmetry_equiv_pos_as_xyz
'x,y,z'

loop_
_atom_site_label
_atom_site_type_symbol
_atom_site_fract_x
_atom_site_fract_y
_atom_site_fract_z
X1	C	0.002315	-0.450361	0.008249
C1	C	-0.082685	-0.419694	0.011315
C2	C	-0.101018	-0.332428	0.003515
C3	C	-0.034485	-0.273028	-0.007485
C4	C	0.050049	-0.302894	-0.002751
C5	C	0.070782	-0.390561	0.004049
C6	C	-0.053618	-0.177228	-0.030818
H1	H	-0.170485	-0.311361	0.002115
H2	H	-0.139285	-0.465094	0.016182
C7	C	0.169515	-0.409028	-0.001551
H3	H	0.104315	-0.255161	-0.009218
C8	C	0.013715	-0.106494	-0.005285
N1	N	-0.045618	-0.033094	0.008049
N2	N	-0.131085	-0.061828	0.023449
N3	N	-0.136618	-0.143961	0.010049
C9	C	-0.026085	0.056506	0.010849
H4	H	0.047249	-0.119494	0.058315
H5	H	0.062449	-0.094428	-0.058151
H6	H	-0.063018	-0.174894	-0.103551
H7	H	0.185515	-0.473028	-0.031951
H8	H	0.199715	-0.404628	0.064849
H9	H	0.202782	-0.359428	-0.043951
C10	C	-0.092285	0.112706	0.033782
C11	C	-0.079685	0.200906	0.034315
C12	C	-0.001751	0.238372	0.008049
C13	C	0.065849	0.181772	-0.011951
C14	C	0.054382	0.092106	-0.010485
C15	C	0.001849	0.336772	0.001515
H10	H	-0.136285	0.240372	0.055249
H11	H	-0.157885	0.088972	0.051515
H12	H	0.109982	0.049972	-0.028018
H13	H	0.131115	0.207372	-0.031685
C16	C	-0.074951	0.381172	-0.017085
C17	C	-0.079885	0.470306	-0.017751
C18	C	-0.006085	0.518706	-0.003218
C19	C	0.072515	0.476906	0.010249
C20	C	0.076315	0.386706	0.012982
H14	H	-0.144285	0.501039	-0.029885
H15	H	-0.136885	0.346239	-0.030351
H16	H	0.140515	0.355572	0.026182
H17	H	0.133049	0.515639	0.020315

loop_
_geom_bond_atom_site_label_1
_geom_bond_atom_site_label_2
_geom_bond_distance
_ccdc_geom_bond_type
X1	C1	0.09041	. A
X1	C5	0.09100	. A
X1	C17	0.11716	. A
X1	C18	0.03404	. A
X1	C19	0.10110	. A
C1	C2	0.08951	. A
C1	H2	0.07272	. A
C1	C17	0.11381	. A
C1	C18	0.09936	. A
C1	H14	0.10851	. A
C2	C3	0.08987	. A
C2	H1	0.07260	. A
C3	C4	0.08978	. A
C3	C6	0.10044	. A
C4	C5	0.09034	. A
C4	H3	0.07256	. A
C5	C7	0.10060	. A
C5	C18	0.11914	. A
C5	H17	0.11375	. A
C6	C8	0.10094	. A
C6	N3	0.09831	. A
C6	H6	0.07338	. A
H2	H14	0.05739	. A
C7	H7	0.07264	. A
C7	H8	0.07308	. A
C7	H9	0.07324	. A
C7	H17	0.08650	. A
C8	N1	0.09532	. A
C8	H4	0.07306	. A
C8	H5	0.07291	. A
N1	N2	0.09147	. A
N1	C9	0.09175	. A
N2	N3	0.08340	. A
C9	C10	0.08982	. A
C9	C14	0.09054	. A
H7	H17	0.07492	. A
C10	C11	0.08910	. A
C10	H11	0.07198	. A
C11	C12	0.09037	. A
C11	H10	0.07211	. A
C12	C13	0.09041	. A
C12	C15	0.09868	. A
C13	C14	0.09041	. A
C13	H13	0.07283	. A
C14	H12	0.07193	. A
C15	C16	0.09064	. A
C15	C20	0.09039	. A
C16	C17	0.08927	. A
C16	H15	0.07233	. A
C17	C18	0.08944	. A
C17	H14	0.07238	. A
C18	C19	0.09004	. A
C19	C20	0.09032	. A
C19	H17	0.07257	. A
C20	H16	0.07256	. A
