data_tobacco_crystal_2_PM
_symmetry_space_group_name_H-M	'P1'
_cell_length_a	15.000000
_cell_length_b	15.000000
_cell_length_c	15.000000
_cell_angle_alpha	90.000000
_cell_angle_beta	90.000000
_cell_angle_gamma	90.000000
_symmetry_Int_Tables_number 1

loop_
_symmetry_equiv_pos_as_xyz
'x,y,z'

loop_
_atom_site_label
_atom_site_type_symbol
_atom_site_fract_x
_atom_site_fract_y
_atom_site_fract_z
X1	C	-0.063492	-0.614451	-0.009010
C1	C	-0.141292	-0.570118	-0.004343
C2	C	-0.143359	-0.478518	0.005390
C3	C	-0.068292	-0.426584	0.010457
C4	C	0.009841	-0.470918	0.003723
C5	C	0.009974	-0.565184	-0.005810
C6	C	-0.071292	-0.319784	0.000123
H1	H	-0.210692	-0.447651	0.008390
H2	H	-0.203826	-0.604784	-0.000610
H3	H	0.076108	-0.594918	-0.011543
H4	H	0.070441	-0.441318	0.003990
C7	C	0.016908	-0.260384	-0.019410
C8	C	-0.006826	-0.155318	0.015390
N1	N	-0.098892	-0.172384	-0.014277
N2	N	-0.131492	-0.251851	0.036657
C9	C	-0.004959	-0.039718	-0.007143
H5	H	-0.194359	-0.263251	0.011123
H6	H	-0.140092	-0.119251	-0.002610
H7	H	0.089908	-0.253251	-0.008677
H8	H	0.059174	-0.143118	-0.015543
H9	H	0.047641	-0.313784	0.020923
H10	H	-0.107226	-0.327451	-0.062077
C10	C	0.076574	0.029416	0.022790
N3	N	0.028974	0.114816	-0.001877
N4	N	-0.060826	0.100349	-0.009877
N5	N	-0.082159	0.021749	-0.024210
C11	C	0.048841	0.209016	0.000457
H11	H	0.139974	0.062749	0.004057
H12	H	0.119374	-0.017051	-0.015810
H13	H	-0.043159	-0.046718	0.053457
C12	C	-0.023826	0.263016	0.000257
C13	C	-0.021426	0.351082	0.003923
C14	C	0.055508	0.398016	0.007523
C15	C	0.130908	0.346482	0.003057
C16	C	0.127774	0.254616	0.001657
C17	C	0.042508	0.503282	0.012390
H14	H	-0.086759	0.383082	0.002590
H15	H	-0.091492	0.237349	-0.001810
H16	H	0.191441	0.219616	0.000590
H17	H	0.196574	0.378549	0.002057
C18	C	0.117241	0.567082	-0.021210
N6	N	0.067708	0.651082	0.004123
N7	N	-0.021026	0.641549	0.005590
N8	N	-0.039559	0.562282	0.013523
H18	H	0.181041	0.600616	-0.002877
H19	H	0.162308	0.521149	0.015323
H20	H	-0.010426	0.480816	-0.030810

loop_
_geom_bond_atom_site_label_1
_geom_bond_atom_site_label_2
_geom_bond_distance
_ccdc_geom_bond_type
X1	C1	0.08967	. A
X1	C5	0.08851	. A
X1	C13	0.05590	. A
X1	C14	0.12079	. A
X1	H20	0.11121	. A
C1	C2	0.09214	. A
C1	H2	0.07160	. A
C1	H14	0.07220	. A
C2	C3	0.09142	. A
C2	H1	0.07413	. A
C2	N8	0.11183	. A
C3	C4	0.09009	. A
C3	C6	0.10734	. A
C3	N7	0.08307	. A
C3	N8	0.03097	. A
C3	H20	0.11673	. A
C4	C5	0.09475	. A
C4	H4	0.06744	. A
C4	C17	0.04252	. A
C4	C18	0.11662	. A
C4	N7	0.11664	. A
C4	N8	0.06032	. A
C4	H20	0.06271	. A
C5	H3	0.07274	. A
C5	C13	0.08996	. A
C5	C14	0.06004	. A
C5	C17	0.07796	. A
C5	H14	0.11002	. A
C5	H20	0.05619	. A
C6	C7	0.10812	. A
C6	N2	0.09785	. A
C6	H9	0.12089	. A
C6	H10	0.07224	. A
C6	N7	0.06365	. A
C6	N8	0.12286	. A
H3	C14	0.02895	. A
H4	C17	0.06261	. A
H4	C18	0.05381	. A
C7	C8	0.11320	. A
C7	H7	0.07413	. A
C7	H8	0.12471	. A
C7	H9	0.07364	. A
C7	N6	0.10475	. A
C7	N7	0.10808	. A
C8	N1	0.09822	. A
C8	C9	0.11779	. A
C8	H8	0.07390	. A
C8	H13	0.12068	. A
N1	N2	0.09986	. A
N1	H6	0.06824	. A
N2	H5	0.06881	. A
C9	H8	0.12196	. A
C9	C10	0.11101	. A
C9	N5	0.10015	. A
C9	H13	0.07198	. A
H7	H9	0.07954	. A
H9	N6	0.04381	. A
C10	N3	0.10083	. A
C10	H11	0.07404	. A
C10	H12	0.07403	. A
N3	N4	0.09131	. A
N3	C11	0.09630	. A
N3	H11	0.12275	. A
N4	N5	0.08270	. A
N5	H13	0.11064	. A
C11	C12	0.09053	. A
C11	C16	0.09117	. A
C12	C13	0.08818	. A
C12	H15	0.07240	. A
C13	C14	0.09019	. A
C13	H14	0.07276	. A
C14	C15	0.09144	. A
C14	C17	0.10618	. A
C14	H20	0.11257	. A
C15	C16	0.09193	. A
C15	H17	0.07308	. A
C16	H16	0.07266	. A
C17	C18	0.10385	. A
C17	N8	0.10108	. A
C17	H19	0.12116	. A
C17	H20	0.07192	. A
C18	N6	0.10075	. A
C18	H18	0.07437	. A
C18	H19	0.07400	. A
N6	N7	0.08926	. A
N6	H18	0.12426	. A
N7	N8	0.08179	. A
N8	H20	0.09722	. A
