data_tobacco_crystal_2_PM
_symmetry_space_group_name_H-M	'P1'
_cell_length_a	15.000000
_cell_length_b	15.000000
_cell_length_c	15.000000
_cell_angle_alpha	90.000000
_cell_angle_beta	90.000000
_cell_angle_gamma	90.000000
_symmetry_Int_Tables_number 1

loop_
_symmetry_equiv_pos_as_xyz
'x,y,z'

loop_
_atom_site_label
_atom_site_type_symbol
_atom_site_fract_x
_atom_site_fract_y
_atom_site_fract_z
X1	C	0.001360	-0.097200	0.009440
C1	C	-0.081973	-0.064467	-0.002893
C2	C	-0.094707	0.025000	-0.013160
C3	C	-0.023240	0.080667	-0.010160
C4	C	0.060960	0.048267	0.000373
C5	C	0.070893	-0.040733	0.010240
Br1	Br	-0.212773	0.069000	-0.034427
N1	N	-0.156907	-0.123533	-0.007093
F1	F	0.154360	-0.073400	0.021107
C6	C	0.145027	0.104000	0.000373
H1	H	-0.149173	-0.184933	0.021440
H2	H	-0.218040	-0.096733	0.004507
H3	H	0.138627	0.166933	-0.035560
H4	H	0.199693	0.068600	-0.033027
H5	H	0.165893	0.118533	0.068840

loop_
_geom_bond_atom_site_label_1
_geom_bond_atom_site_label_2
_geom_bond_distance
_ccdc_geom_bond_type
X1	C1	0.09038	. A
X1	C5	0.08958	. A
C1	C2	0.09095	. A
C1	N1	0.09551	. A
C2	C3	0.09064	. A
C3	C4	0.09083	. A
C4	C5	0.09009	. A
C4	C6	0.10086	. A
C5	F1	0.09029	. A
N1	H1	0.06815	. A
N1	H2	0.06775	. A
C6	H3	0.07275	. A
C6	H4	0.07319	. A
C6	H5	0.07304	. A
