data_tobacco_crystal_2_PM
_symmetry_space_group_name_H-M	'P1'
_cell_length_a	15.000000
_cell_length_b	15.000000
_cell_length_c	15.000000
_cell_angle_alpha	90.000000
_cell_angle_beta	90.000000
_cell_angle_gamma	90.000000
_symmetry_Int_Tables_number 1

loop_
_symmetry_equiv_pos_as_xyz
'x,y,z'

loop_
_atom_site_label
_atom_site_type_symbol
_atom_site_fract_x
_atom_site_fract_y
_atom_site_fract_z
X1	C	0.038392	-0.373220	-0.015137
C1	C	-0.032808	-0.325220	0.012129
C2	C	-0.030275	-0.234754	0.016729
C3	C	0.046659	-0.191020	-0.004604
C4	C	0.117525	-0.240820	-0.031671
C5	C	0.113392	-0.330487	-0.038137
C6	C	0.063392	-0.094220	0.003329
C7	C	-0.183875	-0.208687	-0.005071
H1	H	-0.093541	-0.360487	0.030663
H2	H	0.171659	-0.366154	-0.062404
H3	H	0.179659	-0.208620	-0.050137
H4	H	-0.223208	-0.258420	0.031063
H5	H	-0.169475	-0.232420	-0.072737
H6	H	-0.223541	-0.147820	-0.010937
O1	O	-0.104941	-0.187154	0.043929
C8	C	0.009259	-0.023687	-0.009404
C9	C	0.039925	0.068713	0.002196
H7	H	-0.060408	-0.033754	-0.026871
H8	H	0.132259	-0.079220	0.021196
C10	C	-0.013475	0.140313	-0.007404
C11	C	0.004859	0.235513	0.020663
H9	H	-0.082341	0.127846	-0.026804
H10	H	0.108325	0.077980	0.024596
C12	C	0.087792	0.289113	-0.005204
C13	C	0.061059	0.382646	0.026596
N1	N	-0.037808	0.384646	0.017863
N2	N	-0.064075	0.296780	-0.013471
H11	H	-0.124808	0.279313	0.012063
H12	H	-0.054808	0.434180	-0.026404
H13	H	0.147925	0.265846	0.029063
H14	H	0.076659	0.390113	0.097663
H15	H	0.100725	0.287980	-0.077271
H16	H	-0.000075	0.235180	0.093929

loop_
_geom_bond_atom_site_label_1
_geom_bond_atom_site_label_2
_geom_bond_distance
_ccdc_geom_bond_type
X1	C1	0.09009	. A
X1	C5	0.08933	. A
C1	C2	0.09062	. A
C1	H1	0.07263	. A
C2	C3	0.09103	. A
C2	O1	0.09263	. A
C3	C4	0.09075	. A
C3	C6	0.09856	. A
C4	C5	0.08999	. A
C4	H3	0.07238	. A
C5	H2	0.07250	. A
C6	C8	0.08982	. A
C6	H8	0.07271	. A
C7	H4	0.07298	. A
C7	H5	0.07314	. A
C7	H6	0.07289	. A
C7	O1	0.09537	. A
C8	C9	0.09804	. A
C8	H7	0.07252	. A
C9	C10	0.08983	. A
C9	H10	0.07257	. A
C10	C11	0.10093	. A
C10	H9	0.07263	. A
C11	C12	0.10208	. A
C11	N2	0.09834	. A
C11	H16	0.07343	. A
C12	C13	0.10234	. A
C12	H13	0.07302	. A
C12	H15	0.07323	. A
C13	N1	0.09927	. A
C13	H14	0.07314	. A
N1	N2	0.09691	. A
N1	H12	0.06857	. A
N2	H11	0.06816	. A
