data_tobacco_crystal_2_PM
_symmetry_space_group_name_H-M	'P1'
_cell_length_a	15.000000
_cell_length_b	15.000000
_cell_length_c	15.000000
_cell_angle_alpha	90.000000
_cell_angle_beta	90.000000
_cell_angle_gamma	90.000000
_symmetry_Int_Tables_number 1

loop_
_symmetry_equiv_pos_as_xyz
'x,y,z'

loop_
_atom_site_label
_atom_site_type_symbol
_atom_site_fract_x
_atom_site_fract_y
_atom_site_fract_z
X1	C	0.064522	-0.293343	0.002206
C1	C	-0.018278	-0.254476	0.012740
C2	C	-0.024744	-0.162543	0.018273
C3	C	0.049856	-0.109743	0.007340
C4	C	0.129456	-0.151076	-0.000327
C5	C	0.136922	-0.240076	-0.001994
C6	C	0.053389	-0.008210	-0.017127
C7	C	-0.171411	-0.105076	-0.020327
C8	C	-0.097611	-0.320143	0.014273
H1	H	0.204256	-0.264810	-0.010860
H2	H	0.189989	-0.111810	-0.007927
O1	O	0.090656	0.059524	0.042206
C9	C	-0.008544	0.131724	-0.058527
C10	C	-0.031944	0.035124	-0.045994
C11	C	0.087789	0.233524	0.042940
H3	H	-0.078811	0.033724	0.009673
H4	H	-0.002878	0.150724	-0.128594
H5	H	-0.064078	0.169857	-0.030527
H6	H	-0.060678	0.005657	-0.105994
H7	H	0.134522	0.141457	-0.058994
C12	C	0.080456	0.143524	-0.009594
H8	H	0.097656	-0.006943	-0.075727
C13	C	-0.196544	-0.298876	0.010473
H9	H	-0.218878	-0.261476	0.068740
H10	H	-0.213878	-0.265343	-0.051860
H11	H	-0.234544	-0.361410	0.009340
H12	H	-0.089078	-0.364143	0.072073
H13	H	-0.090878	-0.359476	-0.047060
H14	H	-0.233611	-0.136943	-0.000194
H15	H	-0.151944	-0.125210	-0.087527
H16	H	-0.188678	-0.034410	-0.019394
O2	O	-0.104278	-0.122676	0.044606
C14	C	0.161722	0.296457	0.009473
C15	C	0.134322	0.387724	0.045606
N1	N	0.036589	0.381724	0.057006
N2	N	0.010522	0.293457	0.030473
H17	H	-0.042478	0.271057	0.067206
H18	H	0.007856	0.429724	0.016873
H19	H	0.227189	0.276590	0.034940
H20	H	0.163322	0.399057	0.111606
H21	H	0.165456	0.297390	-0.063660
H22	H	0.097322	0.220190	0.114140

loop_
_geom_bond_atom_site_label_1
_geom_bond_atom_site_label_2
_geom_bond_distance
_ccdc_geom_bond_type
X1	C1	0.09207	. A
X1	C5	0.08998	. A
C1	C2	0.09233	. A
C1	C8	0.10300	. A
C2	C3	0.09205	. A
C2	O2	0.09278	. A
C3	C4	0.09002	. A
C3	C6	0.10450	. A
C4	C5	0.08933	. A
C4	H2	0.07255	. A
C5	H1	0.07228	. A
C6	O1	0.09745	. A
C6	C10	0.09996	. A
C6	H8	0.07345	. A
C7	H14	0.07273	. A
C7	H15	0.07280	. A
C7	H16	0.07275	. A
C7	O2	0.09504	. A
C8	C13	0.10126	. A
C8	H12	0.07314	. A
C8	H13	0.07317	. A
O1	C12	0.09921	. A
C9	C10	0.10018	. A
C9	H4	0.07282	. A
C9	H5	0.07295	. A
C9	C12	0.10225	. A
C10	H3	0.07278	. A
C10	H6	0.07276	. A
C11	C12	0.10447	. A
C11	C14	0.10270	. A
C11	N2	0.09858	. A
C11	H22	0.07306	. A
H7	C12	0.07327	. A
C13	H9	0.07275	. A
C13	H10	0.07287	. A
C13	H11	0.07318	. A
C14	C15	0.10191	. A
C14	H19	0.07300	. A
C14	H21	0.07323	. A
C15	N1	0.09858	. A
C15	H20	0.07298	. A
N1	N2	0.09578	. A
N1	H18	0.06885	. A
N2	H17	0.06826	. A
