data_tobacco_crystal_2_PM
_symmetry_space_group_name_H-M	'P1'
_cell_length_a	15.000000
_cell_length_b	15.000000
_cell_length_c	15.000000
_cell_angle_alpha	90.000000
_cell_angle_beta	90.000000
_cell_angle_gamma	90.000000
_symmetry_Int_Tables_number 1

loop_
_symmetry_equiv_pos_as_xyz
'x,y,z'

loop_
_atom_site_label
_atom_site_type_symbol
_atom_site_fract_x
_atom_site_fract_y
_atom_site_fract_z
X1	C	0.031690	-0.257229	0.000000
C1	C	-0.049643	-0.219362	0.000000
C2	C	-0.061177	-0.130296	0.000000
C3	C	0.010957	-0.074762	0.000000
C4	C	0.092223	-0.115029	0.000000
C5	C	0.103357	-0.203296	0.000000
C6	C	0.006890	0.024571	0.000000
O1	O	-0.148577	-0.099629	0.000000
F1	F	-0.124577	-0.269496	0.000000
H1	H	0.171957	-0.225762	0.000000
H2	H	0.154290	-0.078029	0.000000
C7	C	-0.070377	0.071638	0.000000
C8	C	-0.071577	0.161171	0.000000
C9	C	0.005157	0.207971	0.000000
C10	C	0.082023	0.162638	0.000000
C11	C	0.083023	0.073371	0.000000
N1	N	0.011290	0.298438	0.000000
H3	H	-0.135643	0.194904	0.000000
H4	H	-0.135510	0.040704	0.000000
H5	H	0.149490	0.045838	0.000000
H6	H	0.144957	0.198904	0.000000
N2	N	-0.058977	0.341438	0.000000
H7	H	-0.191243	-0.148696	0.000000

loop_
_geom_bond_atom_site_label_1
_geom_bond_atom_site_label_2
_geom_bond_distance
_ccdc_geom_bond_type
X1	C1	0.08972	. A
X1	C5	0.08969	. A
C1	C2	0.08981	. A
C1	F1	0.09016	. A
C2	C3	0.09103	. A
C2	O1	0.09262	. A
C3	C4	0.09070	. A
C3	C6	0.09942	. A
C4	C5	0.08897	. A
C4	H2	0.07226	. A
C5	H1	0.07219	. A
C6	C7	0.09047	. A
C6	C11	0.09043	. A
O1	H7	0.06502	. A
C7	C8	0.08954	. A
C7	H4	0.07211	. A
C8	C9	0.08988	. A
C8	H3	0.07240	. A
C9	C10	0.08924	. A
C9	N1	0.09067	. A
C10	C11	0.08927	. A
C10	H6	0.07264	. A
C11	H5	0.07194	. A
N1	N2	0.08238	. A
