data_tobacco_crystal_2_PM
_symmetry_space_group_name_H-M	'P1'
_cell_length_a	15.000000
_cell_length_b	15.000000
_cell_length_c	15.000000
_cell_angle_alpha	90.000000
_cell_angle_beta	90.000000
_cell_angle_gamma	90.000000
_symmetry_Int_Tables_number 1

loop_
_symmetry_equiv_pos_as_xyz
'x,y,z'

loop_
_atom_site_label
_atom_site_type_symbol
_atom_site_fract_x
_atom_site_fract_y
_atom_site_fract_z
X1	C	0.020638	-0.288276	-0.001530
C1	C	-0.059695	-0.245543	-0.000997
C2	C	-0.062629	-0.155076	-0.002063
C3	C	0.012238	-0.105343	-0.001997
C4	C	0.091305	-0.148076	-0.001863
C5	C	0.095638	-0.237743	-0.001730
C6	C	0.008838	-0.010276	-0.001597
H1	H	-0.127162	-0.121543	-0.002463
C7	C	-0.144229	-0.290210	0.002003
H2	H	0.162371	-0.265743	-0.001863
H3	H	0.152771	-0.109410	-0.001330
C8	C	0.015971	0.069657	-0.000597
C9	C	0.042571	0.160990	0.000670
N1	N	-0.215829	-0.319410	0.006003
C10	C	-0.012029	0.231857	0.001203
C11	C	0.023171	0.322524	0.001603
H4	H	-0.084095	0.223657	0.001070
H5	H	0.114238	0.171324	0.001203
C12	C	-0.028829	0.395324	0.001403
H6	H	-0.100762	0.390924	0.001270
H7	H	0.095505	0.330390	0.001603

loop_
_geom_bond_atom_site_label_1
_geom_bond_atom_site_label_2
_geom_bond_distance
_ccdc_geom_bond_type
X1	C1	0.09099	. A
X1	C5	0.09044	. A
C1	C2	0.09052	. A
C1	C7	0.09566	. A
C2	C3	0.08988	. A
C2	H1	0.07273	. A
C3	C4	0.08988	. A
C3	C6	0.09513	. A
C4	C5	0.08977	. A
C4	H3	0.07262	. A
C5	H2	0.07237	. A
C6	C8	0.08026	. A
C7	N1	0.07743	. A
C8	C9	0.09514	. A
C9	C10	0.08946	. A
C9	H5	0.07241	. A
C10	C11	0.09726	. A
C10	H4	0.07253	. A
C11	C12	0.08946	. A
C11	H7	0.07276	. A
C12	H6	0.07207	. A
