data_tobacco_crystal_2_PM
_symmetry_space_group_name_H-M	'P1'
_cell_length_a	15.000000
_cell_length_b	15.000000
_cell_length_c	15.000000
_cell_angle_alpha	90.000000
_cell_angle_beta	90.000000
_cell_angle_gamma	90.000000
_symmetry_Int_Tables_number 1

loop_
_symmetry_equiv_pos_as_xyz
'x,y,z'

loop_
_atom_site_label
_atom_site_type_symbol
_atom_site_fract_x
_atom_site_fract_y
_atom_site_fract_z
X1	C	-0.004429	-0.414677	0.001832
C1	C	-0.083296	-0.371077	0.002765
C2	C	-0.085896	-0.281144	0.008165
C3	C	-0.009629	-0.233211	0.012832
C4	C	0.068971	-0.277211	0.011032
C5	C	0.071504	-0.366744	0.005499
C6	C	-0.010229	-0.137944	0.020299
H1	H	-0.150363	-0.247944	0.008765
H2	H	-0.145829	-0.408144	-0.000635
F1	F	0.151704	-0.407344	0.004365
H3	H	0.131571	-0.240811	0.014099
C7	C	-0.006296	-0.057877	0.025632
C8	C	0.001171	0.045123	0.027499
C9	C	0.004304	0.124723	0.017032
C10	C	0.000971	0.216989	-0.015635
C11	C	0.079571	0.278256	0.002499
C12	C	0.041637	0.367189	-0.030235
N1	N	-0.056629	0.359123	-0.016435
N2	N	-0.070763	0.271123	0.022765
H4	H	-0.131363	0.245256	0.005232
H5	H	-0.077363	0.410189	0.024432
H6	H	0.097571	0.280856	0.073432
H7	H	0.053371	0.373989	-0.102101
H8	H	0.139037	0.258723	-0.035035
H9	H	-0.009296	0.212589	-0.088101

loop_
_geom_bond_atom_site_label_1
_geom_bond_atom_site_label_2
_geom_bond_distance
_ccdc_geom_bond_type
X1	C1	0.09012	. A
X1	C5	0.08987	. A
C1	C2	0.09013	. A
C1	H2	0.07277	. A
C2	C3	0.09020	. A
C2	H1	0.07252	. A
C3	C4	0.09010	. A
C3	C6	0.09556	. A
C4	C5	0.08974	. A
C4	H3	0.07248	. A
C5	F1	0.08990	. A
C6	C7	0.08034	. A
C7	C8	0.10329	. A
C8	C9	0.08035	. A
C9	C10	0.09794	. A
C10	C11	0.10129	. A
C10	N2	0.09773	. A
C10	H9	0.07332	. A
C11	C12	0.10208	. A
C11	H6	0.07323	. A
C11	H8	0.07298	. A
C12	N1	0.09956	. A
C12	H7	0.07314	. A
N1	N2	0.09737	. A
N1	H5	0.06861	. A
N2	H4	0.06818	. A
