data_tobacco_crystal_2_PM
_symmetry_space_group_name_H-M	'P1'
_cell_length_a	15.000000
_cell_length_b	15.000000
_cell_length_c	15.000000
_cell_angle_alpha	90.000000
_cell_angle_beta	90.000000
_cell_angle_gamma	90.000000
_symmetry_Int_Tables_number 1

loop_
_symmetry_equiv_pos_as_xyz
'x,y,z'

loop_
_atom_site_label
_atom_site_type_symbol
_atom_site_fract_x
_atom_site_fract_y
_atom_site_fract_z
X1	C	0.017713	-0.260397	-0.005420
C1	C	-0.063087	-0.220464	-0.001554
C2	C	-0.070287	-0.131597	0.009046
C3	C	0.004313	-0.081197	0.014980
C4	C	0.085113	-0.120930	0.010913
C5	C	0.092513	-0.210064	0.000646
C6	C	0.000313	0.013603	0.019713
N1	N	-0.156820	-0.093664	0.012846
H1	H	-0.123354	-0.260530	-0.006754
O1	O	0.176580	-0.248664	-0.004020
H2	H	0.144580	-0.079997	0.014780
C7	C	-0.006954	0.092736	0.008846
C8	C	-0.018420	0.183803	-0.022420
C9	C	0.058913	0.245003	-0.006954
N2	N	0.010046	0.326936	0.001513
N3	N	-0.075687	0.312270	0.028780
N4	N	-0.091154	0.229336	0.025913
H3	H	0.093380	0.233403	0.056513
H4	H	0.107513	0.246403	-0.061154
H5	H	-0.036487	0.182670	-0.093420
H6	H	0.224313	-0.204530	-0.000687
H7	H	-0.163820	-0.026397	0.010646
H8	H	-0.209220	-0.127730	-0.012754

loop_
_geom_bond_atom_site_label_1
_geom_bond_atom_site_label_2
_geom_bond_distance
_ccdc_geom_bond_type
X1	C1	0.09021	. A
X1	C5	0.09036	. A
C1	C2	0.08979	. A
C1	H1	0.07256	. A
C2	C3	0.09022	. A
C2	N1	0.09456	. A
C3	C4	0.09013	. A
C3	C6	0.09500	. A
C4	C5	0.09003	. A
C4	H2	0.07230	. A
C5	O1	0.09262	. A
C6	C7	0.08021	. A
N1	H7	0.06767	. A
N1	H8	0.06754	. A
O1	H6	0.06509	. A
C7	C8	0.09697	. A
C8	C9	0.09983	. A
C8	N4	0.09849	. A
C8	H5	0.07327	. A
C9	N2	0.09577	. A
C9	H3	0.07315	. A
C9	H4	0.07281	. A
N2	N3	0.09115	. A
N3	N4	0.08441	. A
