data_tobacco_crystal_2_PM
_symmetry_space_group_name_H-M	'P1'
_cell_length_a	15.000000
_cell_length_b	15.000000
_cell_length_c	15.000000
_cell_angle_alpha	90.000000
_cell_angle_beta	90.000000
_cell_angle_gamma	90.000000
_symmetry_Int_Tables_number 1

loop_
_symmetry_equiv_pos_as_xyz
'x,y,z'

loop_
_atom_site_label
_atom_site_type_symbol
_atom_site_fract_x
_atom_site_fract_y
_atom_site_fract_z
X1	C	-0.019747	-0.167192	-0.017333
C1	C	-0.096947	-0.122392	-0.002400
C2	C	-0.098747	-0.031992	-0.003400
C3	C	-0.024213	0.016941	-0.019533
C4	C	0.052387	-0.029125	-0.032067
C5	C	0.055987	-0.119192	-0.029533
C6	C	-0.024080	0.118675	-0.028333
N1	N	-0.183880	0.009141	0.011267
O1	O	-0.175947	-0.166992	0.016400
C7	C	0.196653	-0.147592	0.032067
H1	H	0.114120	0.006275	-0.046400
H2	H	0.224053	-0.212592	0.050867
H3	H	0.163253	-0.119259	0.090533
H4	H	0.251387	-0.104259	0.011133
O2	O	0.137720	-0.161325	-0.042133
C8	C	0.057720	0.172408	-0.003467
N2	N	0.014853	0.255808	0.017733
N3	N	-0.071880	0.243941	0.041467
N4	N	-0.093280	0.164275	0.026467
H5	H	0.106253	0.179808	-0.057400
H6	H	0.090920	0.148341	0.056933
H7	H	-0.040480	0.133141	-0.098400
H8	H	-0.184613	0.076875	0.006600
H9	H	-0.233613	-0.016792	-0.026667
H10	H	-0.217880	-0.126925	0.045600

loop_
_geom_bond_atom_site_label_1
_geom_bond_atom_site_label_2
_geom_bond_distance
_ccdc_geom_bond_type
X1	C1	0.09050	. A
X1	C5	0.09049	. A
C1	C2	0.09042	. A
C1	O1	0.09265	. A
C2	C3	0.09061	. A
C2	N1	0.09568	. A
C3	C4	0.09026	. A
C3	C6	0.10211	. A
C4	C5	0.09017	. A
C4	H1	0.07259	. A
C5	O2	0.09281	. A
C6	C8	0.10098	. A
C6	N4	0.09935	. A
C6	H7	0.07340	. A
N1	H8	0.06790	. A
N1	H9	0.06771	. A
O1	H10	0.06493	. A
C7	H2	0.07300	. A
C7	H3	0.07305	. A
C7	H4	0.07288	. A
C7	O2	0.09575	. A
C8	N2	0.09614	. A
C8	H5	0.07293	. A
C8	H6	0.07300	. A
N2	N3	0.09070	. A
N3	N4	0.08384	. A
