data_tobacco_crystal_2_PM
_symmetry_space_group_name_H-M	'P1'
_cell_length_a	15.000000
_cell_length_b	15.000000
_cell_length_c	15.000000
_cell_angle_alpha	90.000000
_cell_angle_beta	90.000000
_cell_angle_gamma	90.000000
_symmetry_Int_Tables_number 1

loop_
_symmetry_equiv_pos_as_xyz
'x,y,z'

loop_
_atom_site_label
_atom_site_type_symbol
_atom_site_fract_x
_atom_site_fract_y
_atom_site_fract_z
X1	C	-0.006921	-0.212365	-0.017244
C1	C	-0.083521	-0.166165	-0.023244
C2	C	-0.086654	-0.076165	-0.014911
C3	C	-0.009388	-0.026765	-0.008644
C4	C	0.064812	-0.076499	0.012356
C5	C	0.066946	-0.166632	0.004822
C6	C	-0.004721	0.075501	-0.016244
C7	C	-0.179854	-0.041299	0.002356
H1	H	-0.145721	-0.203099	-0.031311
N1	N	0.149279	-0.213232	0.028289
N2	N	0.141879	-0.039299	0.058089
H2	H	-0.213188	-0.016899	-0.057511
H3	H	-0.178321	0.009301	0.055156
H4	H	-0.222254	-0.092832	0.032489
H5	H	0.173079	-0.176699	0.081889
H6	H	0.196879	-0.193232	-0.016844
H7	H	0.194679	-0.030632	0.016622
H8	H	0.127279	0.020835	0.086422
C8	C	-0.077521	0.129235	-0.021311
C9	C	-0.072521	0.218835	-0.016444
C10	C	0.006879	0.259301	-0.010711
C11	C	0.080879	0.209968	-0.019244
C12	C	0.073946	0.120568	-0.025044
H9	H	-0.134521	0.256568	-0.015978
H10	H	-0.144588	0.104835	-0.027911
H11	H	0.136412	0.085768	-0.035711
H12	H	0.146746	0.241101	-0.020178

loop_
_geom_bond_atom_site_label_1
_geom_bond_atom_site_label_2
_geom_bond_distance
_ccdc_geom_bond_type
X1	C1	0.08965	. A
X1	C5	0.08964	. A
C1	C2	0.09044	. A
C1	H1	0.07279	. A
C2	C3	0.09192	. A
C2	C7	0.10100	. A
C3	C4	0.09176	. A
C3	C6	0.10265	. A
C4	C5	0.09047	. A
C4	N2	0.09703	. A
C5	N1	0.09747	. A
C6	C8	0.09062	. A
C6	C12	0.09109	. A
C7	H2	0.07274	. A
C7	H3	0.07315	. A
C7	H4	0.07322	. A
N1	H5	0.06909	. A
N1	H6	0.06858	. A
N2	H7	0.06769	. A
N2	H8	0.06806	. A
C8	C9	0.08987	. A
C8	H10	0.07167	. A
C9	C10	0.08930	. A
C9	H9	0.07258	. A
C10	C11	0.08935	. A
C11	C12	0.08986	. A
C11	H12	0.07286	. A
C12	H11	0.07230	. A
