data_tobacco_crystal_2_PM
_symmetry_space_group_name_H-M	'P1'
_cell_length_a	15.000000
_cell_length_b	15.000000
_cell_length_c	15.000000
_cell_angle_alpha	90.000000
_cell_angle_beta	90.000000
_cell_angle_gamma	90.000000
_symmetry_Int_Tables_number 1

loop_
_symmetry_equiv_pos_as_xyz
'x,y,z'

loop_
_atom_site_label
_atom_site_type_symbol
_atom_site_fract_x
_atom_site_fract_y
_atom_site_fract_z
X1	C	-0.022782	-0.202384	0.014244
C1	C	-0.104048	-0.161517	0.016310
C2	C	-0.108115	-0.071584	0.014977
C3	C	-0.034248	-0.020517	0.014777
C4	C	0.044818	-0.061984	0.008910
C5	C	0.053085	-0.151917	0.007777
C6	C	-0.039315	0.079283	0.027910
H1	H	-0.173315	-0.039984	0.017910
Br1	Br	-0.215782	-0.219984	0.025110
C7	C	0.148218	-0.186184	-0.002556
H2	H	0.105018	-0.020384	0.006910
C8	C	0.160885	-0.247451	-0.082290
H3	H	0.134418	-0.216717	-0.142823
H4	H	0.128152	-0.311851	-0.073156
H5	H	0.231952	-0.260517	-0.092356
H6	H	0.193818	-0.129717	-0.013023
H7	H	0.172152	-0.216917	0.059244
O1	O	0.026285	0.133749	-0.017623
C9	C	-0.096982	0.223883	0.023444
C10	C	-0.125315	0.128416	0.007377
C11	C	0.037285	0.299549	-0.030023
H8	H	-0.144382	0.119883	-0.062756
H9	H	-0.128315	0.268549	-0.025290
H10	H	-0.116515	0.247349	0.089777
H11	H	-0.181448	0.109416	0.049644
H12	H	0.034285	0.223283	0.084244
C12	C	0.005152	0.221083	0.017110
H13	H	-0.025782	0.086749	0.099777
C13	C	0.040818	0.378416	-0.043556

loop_
_geom_bond_atom_site_label_1
_geom_bond_atom_site_label_2
_geom_bond_distance
_ccdc_geom_bond_type
X1	C1	0.09099	. A
X1	C5	0.09135	. A
C1	C2	0.09004	. A
C1	Br1	0.12641	. A
C2	C3	0.08980	. A
C2	H1	0.07251	. A
C3	C4	0.08947	. A
C3	C6	0.10079	. A
C4	C5	0.09032	. A
C4	H2	0.07320	. A
C5	C7	0.10164	. A
C6	O1	0.09666	. A
C6	C10	0.10115	. A
C6	H13	0.07351	. A
C7	C8	0.10135	. A
C7	H6	0.07333	. A
C7	H7	0.07305	. A
C8	H3	0.07286	. A
C8	H4	0.07282	. A
C8	H5	0.07296	. A
O1	C12	0.09633	. A
C9	C10	0.10087	. A
C9	H9	0.07316	. A
C9	H10	0.07302	. A
C9	C12	0.10237	. A
C10	H8	0.07318	. A
C10	H11	0.07279	. A
C11	C12	0.09701	. A
C11	C13	0.08010	. A
H12	C12	0.07322	. A
