data_tobacco_crystal_2_PM
_symmetry_space_group_name_H-M	'P1'
_cell_length_a	15.000000
_cell_length_b	15.000000
_cell_length_c	15.000000
_cell_angle_alpha	90.000000
_cell_angle_beta	90.000000
_cell_angle_gamma	90.000000
_symmetry_Int_Tables_number 1

loop_
_symmetry_equiv_pos_as_xyz
'x,y,z'

loop_
_atom_site_label
_atom_site_type_symbol
_atom_site_fract_x
_atom_site_fract_y
_atom_site_fract_z
X1	C	-0.023295	-0.454119	0.012978
C1	C	-0.103829	-0.414852	0.010645
C2	C	-0.111029	-0.326186	-0.000088
C3	C	-0.038629	-0.272652	-0.008555
C4	C	0.042238	-0.312452	-0.001955
C5	C	0.050638	-0.401786	0.008378
C6	C	-0.049429	-0.173986	-0.029555
F1	F	-0.194229	-0.291852	-0.005422
H1	H	-0.164829	-0.453252	0.014178
H2	H	0.117371	-0.428119	0.011245
H3	H	0.102771	-0.272919	-0.007955
C7	C	0.021438	-0.104052	-0.007488
N1	N	-0.034962	-0.024652	-0.010955
N2	N	-0.120162	-0.050519	0.016578
N3	N	-0.128029	-0.133652	0.013845
C8	C	-0.010029	0.062348	0.023045
H4	H	0.074971	-0.100052	-0.056622
H5	H	0.048038	-0.111386	0.060178
H6	H	-0.062362	-0.171052	-0.101622
C9	C	0.067771	0.121481	-0.008422
C10	C	0.036305	0.215948	0.025445
N4	N	-0.061229	0.202348	0.039645
N5	N	-0.080962	0.122214	-0.005955
C11	C	0.049171	0.302214	-0.031422
H7	H	-0.140562	0.093748	0.010712
H8	H	-0.095495	0.255548	0.013045
H9	H	0.130305	0.101148	0.023578
H10	H	0.065571	0.226748	0.091512
H11	H	0.077238	0.119281	-0.080888
H12	H	-0.008295	0.056081	0.096045
C12	C	0.124971	0.364881	-0.006422
N6	N	0.077705	0.448081	0.005978
N7	N	-0.011495	0.438014	0.006645
N8	N	-0.030895	0.360081	-0.014822
H13	H	0.175171	0.372348	-0.058822
H14	H	0.158238	0.347681	0.056178
H15	H	0.049838	0.287348	-0.102888

loop_
_geom_bond_atom_site_label_1
_geom_bond_atom_site_label_2
_geom_bond_distance
_ccdc_geom_bond_type
X1	C1	0.08963	. A
X1	C5	0.09070	. A
X1	N7	0.10869	. A
C1	C2	0.08960	. A
C1	H1	0.07217	. A
C2	C3	0.09044	. A
C2	F1	0.09016	. A
C3	C4	0.09037	. A
C3	C6	0.10145	. A
C4	C5	0.09032	. A
C4	H3	0.07255	. A
C5	H2	0.07180	. A
C6	C7	0.10198	. A
C6	N3	0.09843	. A
C6	H6	0.07328	. A
C7	N1	0.09745	. A
C7	H4	0.07277	. A
C7	H5	0.07308	. A
N1	N2	0.09320	. A
N1	C8	0.09668	. A
N2	N3	0.08355	. A
C8	C9	0.10266	. A
C8	N5	0.09724	. A
C8	H12	0.07329	. A
C9	C10	0.10517	. A
C9	H9	0.07313	. A
C9	H11	0.07312	. A
C10	N4	0.09950	. A
C10	C11	0.10412	. A
C10	H10	0.07306	. A
N4	N5	0.09429	. A
N4	H8	0.06864	. A
N5	H7	0.06812	. A
C11	C12	0.10148	. A
C11	N8	0.10017	. A
C11	H15	0.07300	. A
C12	N6	0.09649	. A
C12	H13	0.07295	. A
C12	H14	0.07295	. A
N6	N7	0.08977	. A
N7	N8	0.08313	. A
