data_tobacco_crystal_2_PM
_symmetry_space_group_name_H-M	'P1'
_cell_length_a	15.000000
_cell_length_b	15.000000
_cell_length_c	15.000000
_cell_angle_alpha	90.000000
_cell_angle_beta	90.000000
_cell_angle_gamma	90.000000
_symmetry_Int_Tables_number 1

loop_
_symmetry_equiv_pos_as_xyz
'x,y,z'

loop_
_atom_site_label
_atom_site_type_symbol
_atom_site_fract_x
_atom_site_fract_y
_atom_site_fract_z
X1	C	0.057573	-0.208632	-0.003351
C1	C	-0.018227	-0.168432	0.024783
C2	C	-0.017494	-0.079565	0.038116
C3	C	0.052840	-0.027032	0.017249
C4	C	0.128906	-0.069565	-0.006617
C5	C	0.132440	-0.159565	-0.015817
C6	C	0.041040	0.071901	0.013916
H1	H	-0.078560	-0.049965	0.063049
C7	C	-0.171627	-0.177832	-0.008284
C8	C	0.215173	-0.199432	-0.040884
H2	H	0.188640	-0.031165	-0.021951
N1	N	0.282906	-0.234299	-0.054017
H3	H	-0.201560	-0.125165	0.032516
H4	H	-0.153094	-0.151165	-0.073817
H5	H	-0.221760	-0.229699	-0.018284
O1	O	-0.096627	-0.216365	0.037049
C9	C	-0.041694	0.106768	0.001316
C10	C	-0.057160	0.194568	-0.008151
C11	C	0.012040	0.252168	-0.006817
C12	C	0.095040	0.219568	0.006049
C13	C	0.109240	0.130835	0.016783
N2	N	-0.148227	0.220168	-0.021684
H6	H	-0.099760	0.063968	-0.004817
H7	H	0.177706	0.109435	0.025649
H8	H	0.152106	0.264435	0.007383
H9	H	-0.185827	0.206701	0.033316
H10	H	-0.154027	0.287368	-0.032684

loop_
_geom_bond_atom_site_label_1
_geom_bond_atom_site_label_2
_geom_bond_distance
_ccdc_geom_bond_type
X1	C1	0.09029	. A
X1	C5	0.09038	. A
C1	C2	0.08986	. A
C1	O1	0.09271	. A
C2	C3	0.09023	. A
C2	H1	0.07230	. A
C3	C4	0.09036	. A
C3	C6	0.09969	. A
C4	C5	0.09054	. A
C4	H2	0.07265	. A
C5	C8	0.09520	. A
C6	C9	0.09066	. A
C6	C13	0.09018	. A
C7	H3	0.07304	. A
C7	H4	0.07314	. A
C7	H5	0.07283	. A
C7	O1	0.09573	. A
C8	N1	0.07730	. A
C9	C10	0.08965	. A
C9	H6	0.07240	. A
C10	C11	0.09005	. A
C10	N2	0.09556	. A
C11	C12	0.09010	. A
C12	C13	0.09050	. A
C12	H8	0.07260	. A
C13	H7	0.07228	. A
N2	H9	0.06797	. A
N2	H10	0.06834	. A
