data_tobacco_crystal_2_PM
_symmetry_space_group_name_H-M	'P1'
_cell_length_a	15.000000
_cell_length_b	15.000000
_cell_length_c	15.000000
_cell_angle_alpha	90.000000
_cell_angle_beta	90.000000
_cell_angle_gamma	90.000000
_symmetry_Int_Tables_number 1

loop_
_symmetry_equiv_pos_as_xyz
'x,y,z'

loop_
_atom_site_label
_atom_site_type_symbol
_atom_site_fract_x
_atom_site_fract_y
_atom_site_fract_z
X1	C	0.022931	-0.254278	-0.012306
C1	C	-0.057936	-0.217411	0.000628
C2	C	-0.066069	-0.130278	0.017494
C3	C	0.005397	-0.074944	0.021228
C4	C	0.087264	-0.110878	0.002494
C5	C	0.095597	-0.200278	-0.013372
C6	C	-0.014669	0.022389	0.047628
H1	H	-0.133136	-0.105211	0.029561
H2	H	-0.118403	-0.257744	-0.000372
Cl1	Cl	0.200997	-0.245478	-0.036306
C7	C	0.166064	-0.056144	-0.000039
N1	N	0.231864	-0.015878	-0.004572
O1	O	0.057864	0.082656	0.034428
C8	C	-0.071869	0.157589	-0.014039
C9	C	-0.095869	0.061989	0.000694
N2	N	0.059264	0.246656	0.010961
H3	H	-0.156136	0.055789	0.041628
H4	H	-0.095736	0.197856	0.042161
H5	H	-0.101536	0.185122	-0.074639
H6	H	-0.109336	0.030056	-0.063506
H7	H	0.053064	0.144189	-0.086172
C10	C	0.029464	0.157656	-0.018106
H8	H	-0.026869	0.021789	0.119828
N3	N	0.037797	0.304789	-0.045306

loop_
_geom_bond_atom_site_label_1
_geom_bond_atom_site_label_2
_geom_bond_distance
_ccdc_geom_bond_type
X1	C1	0.08981	. A
X1	C5	0.09054	. A
C1	C2	0.08912	. A
C1	H2	0.07269	. A
C2	C3	0.09046	. A
C2	H1	0.07261	. A
C3	C4	0.09135	. A
C3	C6	0.10283	. A
C4	C5	0.09118	. A
C4	C7	0.09598	. A
C5	Cl1	0.11695	. A
C6	O1	0.09522	. A
C6	C9	0.10181	. A
C6	H8	0.07323	. A
C7	N1	0.07728	. A
O1	C10	0.09587	. A
C8	C9	0.09966	. A
C8	H4	0.07314	. A
C8	H5	0.07287	. A
C8	C10	0.10141	. A
C9	H3	0.07312	. A
C9	H6	0.07296	. A
N2	C10	0.09825	. A
N2	N3	0.08370	. A
H7	C10	0.07329	. A
