data_tobacco_crystal_2_PM
_symmetry_space_group_name_H-M	'P1'
_cell_length_a	15.000000
_cell_length_b	15.000000
_cell_length_c	15.000000
_cell_angle_alpha	90.000000
_cell_angle_beta	90.000000
_cell_angle_gamma	90.000000
_symmetry_Int_Tables_number 1

loop_
_symmetry_equiv_pos_as_xyz
'x,y,z'

loop_
_atom_site_label
_atom_site_type_symbol
_atom_site_fract_x
_atom_site_fract_y
_atom_site_fract_z
X1	C	0.023491	-0.302822	-0.003062
C1	C	-0.048042	-0.248889	0.007938
C2	C	-0.035842	-0.159756	0.008472
C3	C	0.045291	-0.120489	-0.000795
C4	C	0.116158	-0.176156	-0.012728
C5	C	0.104425	-0.265356	-0.014128
C6	C	0.055291	-0.022756	0.008738
H1	H	-0.094975	-0.119622	0.018472
O1	O	-0.132909	-0.283222	0.020005
H2	H	0.163625	-0.305422	-0.025395
O2	O	0.202891	-0.146289	-0.023595
H3	H	-0.179509	-0.238089	0.021405
H4	H	0.206825	-0.083022	-0.036528
C7	C	-0.011375	0.037444	0.008338
C8	C	-0.007375	0.134844	0.033472
H5	H	-0.078842	0.014778	-0.005128
H6	H	0.121491	0.002044	0.024605
O3	O	0.065225	0.183311	-0.005395
C9	C	-0.063175	0.277244	-0.001795
C10	C	-0.091975	0.181844	0.003338
H7	H	-0.147575	0.171511	0.049405
H8	H	-0.069709	0.308644	0.063938
H9	H	-0.103109	0.316178	-0.048862
H10	H	-0.112909	0.159444	-0.063062
H11	H	0.039491	0.273778	-0.103328
C11	C	0.034025	0.270778	-0.030528
H12	H	-0.000909	0.140044	0.106205

loop_
_geom_bond_atom_site_label_1
_geom_bond_atom_site_label_2
_geom_bond_distance
_ccdc_geom_bond_type
X1	C1	0.09026	. A
X1	C5	0.08987	. A
C1	C2	0.08997	. A
C1	O1	0.09234	. A
C2	C3	0.09061	. A
C2	H1	0.07216	. A
C3	C4	0.09090	. A
C3	C6	0.09871	. A
C4	C5	0.08998	. A
C4	O2	0.09237	. A
C5	H2	0.07237	. A
C6	C7	0.08983	. A
C6	H6	0.07245	. A
O1	H3	0.06489	. A
O2	H4	0.06469	. A
C7	C8	0.10067	. A
C7	H5	0.07244	. A
C8	O3	0.09555	. A
C8	C10	0.10136	. A
C8	H12	0.07321	. A
O3	C11	0.09621	. A
C9	C10	0.09978	. A
C9	H8	0.07314	. A
C9	H9	0.07298	. A
C9	C11	0.10156	. A
C10	H7	0.07294	. A
C10	H10	0.07314	. A
H11	C11	0.07307	. A
