data_tobacco_crystal_2_PM
_symmetry_space_group_name_H-M	'P1'
_cell_length_a	15.000000
_cell_length_b	15.000000
_cell_length_c	15.000000
_cell_angle_alpha	90.000000
_cell_angle_beta	90.000000
_cell_angle_gamma	90.000000
_symmetry_Int_Tables_number 1

loop_
_symmetry_equiv_pos_as_xyz
'x,y,z'

loop_
_atom_site_label
_atom_site_type_symbol
_atom_site_fract_x
_atom_site_fract_y
_atom_site_fract_z
X1	C	0.024195	-0.345969	-0.007048
C1	C	-0.055871	-0.305436	-0.013248
C2	C	-0.063071	-0.216436	-0.010914
C3	C	0.009195	-0.162836	-0.000581
C4	C	0.089662	-0.204569	-0.000181
C5	C	0.097395	-0.293569	-0.002914
C6	C	0.000995	-0.064302	0.008886
H1	H	-0.130138	-0.190036	-0.016314
F1	F	-0.132205	-0.352902	-0.020848
H2	H	0.164729	-0.319836	0.000819
H3	H	0.151795	-0.167769	0.004486
C7	C	-0.078605	-0.023769	0.021419
C8	C	-0.086405	0.065564	0.020952
C9	C	-0.015071	0.119364	0.008819
C10	C	0.066329	0.079898	0.007419
C11	C	0.072929	-0.009702	0.006152
C12	C	-0.034205	0.216164	-0.012581
H4	H	-0.153338	0.093631	0.026552
H5	H	-0.140205	-0.061036	0.029286
H6	H	0.139729	-0.036569	-0.000048
Cl1	Cl	0.167195	0.136498	0.000486
C13	C	0.036195	0.287498	-0.013248
N1	N	-0.020071	0.363898	-0.003648
N2	N	-0.099205	0.342898	0.035952
N3	N	-0.105271	0.258831	0.041819
H7	H	0.080462	0.286964	0.044686
H8	H	0.074462	0.290231	-0.075314
H9	H	-0.061605	0.213298	-0.080848

loop_
_geom_bond_atom_site_label_1
_geom_bond_atom_site_label_2
_geom_bond_distance
_ccdc_geom_bond_type
X1	C1	0.08996	. A
X1	C5	0.09012	. A
C1	C2	0.08932	. A
C1	F1	0.09021	. A
C2	C3	0.09057	. A
C2	H1	0.07228	. A
C3	C4	0.09065	. A
C3	C6	0.09933	. A
C4	C5	0.08938	. A
C4	H3	0.07236	. A
C5	H2	0.07237	. A
C6	C7	0.09020	. A
C6	C11	0.09035	. A
C7	C8	0.08967	. A
C7	H5	0.07242	. A
C8	C9	0.09017	. A
C8	H4	0.07280	. A
C9	C10	0.09047	. A
C9	C12	0.10097	. A
C10	C11	0.08985	. A
C10	Cl1	0.11587	. A
C11	H6	0.07227	. A
C12	C13	0.10022	. A
C12	N3	0.09915	. A
C12	H9	0.07362	. A
C13	N1	0.09537	. A
C13	H7	0.07291	. A
C13	H8	0.07297	. A
N1	N2	0.09095	. A
N2	N3	0.08449	. A
