data_tobacco_crystal_2_PM
_symmetry_space_group_name_H-M	'P1'
_cell_length_a	15.000000
_cell_length_b	15.000000
_cell_length_c	15.000000
_cell_angle_alpha	90.000000
_cell_angle_beta	90.000000
_cell_angle_gamma	90.000000
_symmetry_Int_Tables_number 1

loop_
_symmetry_equiv_pos_as_xyz
'x,y,z'

loop_
_atom_site_label
_atom_site_type_symbol
_atom_site_fract_x
_atom_site_fract_y
_atom_site_fract_z
C1	C	-0.016143	-0.263196	-0.001865
C2	C	-0.098743	-0.226196	-0.002065
C3	C	-0.106409	-0.136196	0.001602
C4	C	-0.033343	-0.083530	0.006535
C5	C	0.047057	-0.123196	0.009402
C6	C	0.058591	-0.212196	0.004002
C7	C	-0.040676	0.016604	0.008335
H1	H	-0.172409	-0.105463	0.000335
C8	C	-0.179409	-0.278063	-0.005798
C9	C	0.156991	-0.237863	0.002202
H2	H	0.106591	-0.081996	0.015669
C10	C	0.043124	0.070004	-0.009865
N1	N	0.001924	0.152870	-0.037198
N2	N	-0.074809	0.130470	-0.083731
N3	N	-0.097943	0.051804	-0.064198
C11	C	-0.008743	0.219137	0.033402
H3	H	0.088591	0.077670	0.046669
H4	H	0.080524	0.044804	-0.067531
H5	H	-0.069809	0.037004	0.072469
N4	N	-0.245409	-0.317996	-0.006465
C12	C	0.188857	-0.330930	-0.020598
H6	H	0.153524	-0.359063	-0.077665
H7	H	0.183324	-0.375330	0.036869
H8	H	0.259791	-0.328063	-0.038065
H9	H	0.186724	-0.219063	0.066535
H10	H	0.188391	-0.194330	-0.047865
O1	O	0.055524	0.287137	0.019069
C13	C	-0.086943	0.354604	0.002135
C14	C	-0.099609	0.262937	0.040735
H11	H	-0.154609	0.226870	0.009335
H12	H	-0.107743	0.404204	0.051535
H13	H	-0.128343	0.364937	-0.057065
H14	H	-0.117676	0.268404	0.111335
H15	H	0.020857	0.355070	-0.093798
C15	C	0.011524	0.361204	-0.021598
H16	H	0.006857	0.186937	0.097202

loop_
_geom_bond_atom_site_label_1
_geom_bond_atom_site_label_2
_geom_bond_distance
_ccdc_geom_bond_type
C1	C2	0.09051	. A
C1	C6	0.09067	. A
C2	C3	0.09040	. A
C2	C8	0.09597	. A
C3	C4	0.09020	. A
C3	H1	0.07282	. A
C4	C5	0.08970	. A
C4	C7	0.10042	. A
C5	C6	0.08991	. A
C5	H2	0.07267	. A
C6	C9	0.10171	. A
C7	C10	0.10102	. A
C7	N3	0.09889	. A
C7	H5	0.07333	. A
C8	N4	0.07714	. A
C9	C12	0.10098	. A
C9	H9	0.07332	. A
C9	H10	0.07340	. A
C10	N1	0.09650	. A
C10	H3	0.07295	. A
C10	H4	0.07321	. A
N1	N2	0.09249	. A
N1	C11	0.09741	. A
N2	N3	0.08429	. A
C11	O1	0.09466	. A
C11	C14	0.10114	. A
C11	H16	0.07315	. A
C12	H6	0.07278	. A
C12	H7	0.07283	. A
C12	H8	0.07311	. A
O1	C15	0.09527	. A
C13	C14	0.10027	. A
C13	H12	0.07303	. A
C13	H13	0.07298	. A
C13	C15	0.10150	. A
C14	H11	0.07288	. A
C14	H14	0.07308	. A
H15	C15	0.07306	. A
