data_tobacco_crystal_2_PM
_symmetry_space_group_name_H-M	'P1'
_cell_length_a	15.000000
_cell_length_b	15.000000
_cell_length_c	15.000000
_cell_angle_alpha	90.000000
_cell_angle_beta	90.000000
_cell_angle_gamma	90.000000
_symmetry_Int_Tables_number 1

loop_
_symmetry_equiv_pos_as_xyz
'x,y,z'

loop_
_atom_site_label
_atom_site_type_symbol
_atom_site_fract_x
_atom_site_fract_y
_atom_site_fract_z
X1	C	0.041738	-0.163686	0.004294
C1	C	-0.040128	-0.124420	0.000227
C2	C	-0.041928	-0.034820	-0.006306
C3	C	0.030272	0.018914	-0.006773
C4	C	0.111272	-0.020620	0.003560
C5	C	0.114872	-0.111020	0.007560
C6	C	0.009072	0.117314	-0.023573
H1	H	-0.106595	-0.002353	-0.012973
C7	C	-0.128862	-0.175220	0.001627
F1	F	0.196605	-0.149220	0.013694
C8	C	0.197538	0.030980	0.008027
H2	H	0.204672	0.075780	-0.049106
H3	H	0.256538	-0.012086	0.007560
H4	H	0.200805	0.069380	0.070027
C9	C	0.071005	0.194380	-0.005973
N1	N	0.005205	0.263647	0.005694
N2	N	-0.075062	0.230447	0.031227
N3	N	-0.072328	0.146847	0.026027
H5	H	0.108138	0.189314	0.056494
H6	H	0.115872	0.209514	-0.061373
H7	H	-0.008928	0.120380	-0.094773
C10	C	-0.214862	-0.119753	0.004827
H8	H	-0.216595	-0.076753	0.063894
H9	H	-0.221928	-0.078086	-0.054706
H10	H	-0.273195	-0.163353	0.007627
H11	H	-0.130262	-0.218020	0.060960
H12	H	-0.132928	-0.217486	-0.057773

loop_
_geom_bond_atom_site_label_1
_geom_bond_atom_site_label_2
_geom_bond_distance
_ccdc_geom_bond_type
X1	C1	0.09089	. A
X1	C5	0.09018	. A
C1	C2	0.08986	. A
C1	C7	0.10226	. A
C2	C3	0.09000	. A
C2	H1	0.07267	. A
C3	C4	0.09072	. A
C3	C6	0.10205	. A
C4	C5	0.09056	. A
C4	C8	0.10062	. A
C5	F1	0.09043	. A
C6	C9	0.10042	. A
C6	N3	0.09979	. A
C6	H7	0.07350	. A
C7	C10	0.10239	. A
C7	H11	0.07317	. A
C7	H12	0.07302	. A
C8	H2	0.07295	. A
C8	H3	0.07305	. A
C8	H4	0.07300	. A
C9	N1	0.09625	. A
C9	H5	0.07285	. A
C9	H6	0.07288	. A
N1	N2	0.09054	. A
N2	N3	0.08381	. A
C10	H8	0.07308	. A
C10	H9	0.07301	. A
C10	H10	0.07288	. A
