data_tobacco_crystal_2_PM
_symmetry_space_group_name_H-M	'P1'
_cell_length_a	15.000000
_cell_length_b	15.000000
_cell_length_c	15.000000
_cell_angle_alpha	90.000000
_cell_angle_beta	90.000000
_cell_angle_gamma	90.000000
_symmetry_Int_Tables_number 1

loop_
_symmetry_equiv_pos_as_xyz
'x,y,z'

loop_
_atom_site_label
_atom_site_type_symbol
_atom_site_fract_x
_atom_site_fract_y
_atom_site_fract_z
X1	C	0.002908	-0.412765	-0.001417
C1	C	-0.078025	-0.373165	-0.001550
C2	C	-0.085892	-0.283631	-0.002817
C3	C	-0.013358	-0.229498	-0.004217
C4	C	0.067042	-0.271298	-0.005483
C5	C	0.075708	-0.360231	-0.003817
C6	C	-0.019758	-0.130098	-0.001550
H1	H	-0.153092	-0.256898	-0.001750
H2	H	-0.138625	-0.413231	0.000117
H3	H	0.143242	-0.385698	-0.003417
H4	H	0.129442	-0.234898	-0.007150
C7	C	-0.097958	-0.084231	-0.004683
C8	C	-0.100692	0.005635	0.001250
C9	C	-0.025225	0.053902	0.011183
C10	C	0.052442	0.008835	0.013450
C11	C	0.054908	-0.079898	0.006650
C12	C	-0.025425	0.154569	0.018717
H5	H	-0.165158	0.038902	-0.001217
H6	H	-0.161558	-0.117831	-0.011750
H7	H	0.121242	-0.108098	0.009183
H8	H	0.116175	0.042369	0.021250
C13	C	0.060775	0.199769	-0.008217
N1	N	0.027442	0.277769	-0.052217
N2	N	-0.061092	0.269435	-0.072683
N3	N	-0.090092	0.197102	-0.041750
C14	C	0.052508	0.362435	-0.014350
H9	H	0.103708	0.213169	0.049450
H10	H	0.099575	0.162302	-0.057417
H11	H	-0.042692	0.172969	0.087517
C15	C	0.063375	0.436435	0.013050
C16	C	0.055842	0.534902	0.033050
C17	C	0.032308	0.610969	0.032583

loop_
_geom_bond_atom_site_label_1
_geom_bond_atom_site_label_2
_geom_bond_distance
_ccdc_geom_bond_type
X1	C1	0.09010	. A
X1	C5	0.08981	. A
X1	C16	0.08203	. A
X1	C17	0.05083	. A
C1	C2	0.08989	. A
C1	H2	0.07267	. A
C1	C17	0.11658	. A
C2	C3	0.09052	. A
C2	H1	0.07233	. A
C3	C4	0.09063	. A
C3	C6	0.09964	. A
C4	C5	0.08937	. A
C4	H4	0.07226	. A
C5	H3	0.07218	. A
C5	C16	0.11292	. A
C5	C17	0.06354	. A
C6	C7	0.09071	. A
C6	C11	0.09035	. A
C7	C8	0.09010	. A
C7	H6	0.07228	. A
C8	C9	0.09013	. A
C8	H5	0.07259	. A
C9	C10	0.08982	. A
C9	C12	0.10095	. A
C10	C11	0.08903	. A
C10	H8	0.07244	. A
C11	H7	0.07212	. A
C12	C13	0.10099	. A
C12	N3	0.09822	. A
C12	H11	0.07328	. A
C13	N1	0.09556	. A
C13	H9	0.07313	. A
C13	H10	0.07301	. A
N1	N2	0.09125	. A
N1	C14	0.09608	. A
N2	N3	0.08384	. A
C14	C15	0.07965	. A
C15	C16	0.10076	. A
C16	C17	0.07963	. A
