data_tobacco_crystal_2_PM
_symmetry_space_group_name_H-M	'P1'
_cell_length_a	15.000000
_cell_length_b	15.000000
_cell_length_c	15.000000
_cell_angle_alpha	90.000000
_cell_angle_beta	90.000000
_cell_angle_gamma	90.000000
_symmetry_Int_Tables_number 1

loop_
_symmetry_equiv_pos_as_xyz
'x,y,z'

loop_
_atom_site_label
_atom_site_type_symbol
_atom_site_fract_x
_atom_site_fract_y
_atom_site_fract_z
X1	C	-0.061419	-0.311574	0.026545
C1	C	-0.134419	-0.259374	0.024412
C2	C	-0.125952	-0.170641	0.022212
C3	C	-0.045619	-0.128774	0.022945
C4	C	0.028315	-0.181441	0.032679
C5	C	0.020848	-0.273174	0.032145
C6	C	-0.043819	-0.028574	-0.003721
H1	H	-0.188352	-0.134508	0.016145
H2	H	-0.200952	-0.287374	0.020812
C7	C	0.160381	-0.325041	-0.028721
C8	C	0.117781	-0.136774	0.045679
H3	H	0.168315	-0.259374	-0.058921
H4	H	0.144848	-0.373374	-0.081121
H5	H	0.224181	-0.344108	0.001412
O1	O	0.094315	-0.329241	0.040212
O2	O	0.007381	0.042759	0.040412
C9	C	-0.115219	0.110226	-0.030121
C10	C	-0.135619	0.014292	-0.011521
C11	C	0.009448	0.219692	-0.009855
H6	H	-0.177419	-0.014308	-0.063788
H7	H	-0.134485	0.130826	-0.097388
H8	H	-0.154219	0.149092	0.017545
H9	H	-0.171085	0.010092	0.052545
H10	H	0.018915	0.100559	-0.079188
C12	C	-0.014352	0.118826	-0.016255
H11	H	-0.015752	-0.032708	-0.071521
H12	H	0.165981	-0.180841	0.078345
H13	H	0.112181	-0.079374	0.090279
H14	H	0.145381	-0.114708	-0.018121
C13	C	0.097181	0.263492	0.016679
C14	C	0.075248	0.360959	-0.009855
N1	N	-0.023485	0.368026	0.000412
N2	N	-0.051819	0.282492	0.034945
H15	H	-0.116685	0.271426	0.017345
H16	H	-0.038152	0.420426	0.042012
H17	H	0.154048	0.238092	-0.021255
H18	H	0.090115	0.370292	-0.080988
H19	H	0.111648	0.257759	0.088079
H20	H	0.002315	0.235959	-0.081455

loop_
_geom_bond_atom_site_label_1
_geom_bond_atom_site_label_2
_geom_bond_distance
_ccdc_geom_bond_type
X1	C1	0.08977	. A
X1	C5	0.09096	. A
C1	C2	0.08916	. A
C1	H2	0.07227	. A
C2	C3	0.09059	. A
C2	H1	0.07236	. A
C3	C4	0.09129	. A
C3	C6	0.10370	. A
C4	C5	0.09204	. A
C4	C8	0.10084	. A
C5	O1	0.09277	. A
C6	O2	0.09827	. A
C6	C10	0.10162	. A
C6	H11	0.07350	. A
C7	H3	0.07271	. A
C7	H4	0.07296	. A
C7	H5	0.07309	. A
C7	O1	0.09557	. A
C8	H12	0.07302	. A
C8	H13	0.07291	. A
C8	H14	0.07293	. A
O2	C12	0.09731	. A
C9	C10	0.09983	. A
C9	H7	0.07294	. A
C9	H8	0.07283	. A
C9	C12	0.10218	. A
C10	H6	0.07278	. A
C10	H9	0.07335	. A
C11	C12	0.10383	. A
C11	C13	0.10159	. A
C11	N2	0.09851	. A
C11	H20	0.07377	. A
H10	C12	0.07349	. A
C13	C14	0.10337	. A
C13	H17	0.07292	. A
C13	H19	0.07308	. A
C14	N1	0.09952	. A
C14	H18	0.07327	. A
N1	N2	0.09649	. A
N1	H16	0.06849	. A
N2	H15	0.06812	. A
