data_tobacco_crystal_2_PM
_symmetry_space_group_name_H-M	'P1'
_cell_length_a	15.000000
_cell_length_b	15.000000
_cell_length_c	15.000000
_cell_angle_alpha	90.000000
_cell_angle_beta	90.000000
_cell_angle_gamma	90.000000
_symmetry_Int_Tables_number 1

loop_
_symmetry_equiv_pos_as_xyz
'x,y,z'

loop_
_atom_site_label
_atom_site_type_symbol
_atom_site_fract_x
_atom_site_fract_y
_atom_site_fract_z
X1	C	0.008670	-0.279187	-0.001453
C1	C	-0.073330	-0.242053	-0.004120
C2	C	-0.082463	-0.152787	-0.007387
C3	C	-0.009930	-0.099453	-0.007853
C4	C	0.072870	-0.135920	-0.004920
C5	C	0.080803	-0.225653	-0.001653
C6	C	-0.022330	-0.005320	-0.007787
H1	H	-0.149197	-0.124187	-0.008920
H2	H	-0.133063	-0.283520	-0.003253
F1	F	0.163270	-0.262253	0.002080
Br1	Br	0.177870	-0.065653	-0.004187
C7	C	-0.027397	0.074013	0.001547
C8	C	-0.029063	0.167880	0.026747
C9	C	0.051870	0.221013	0.001213
N1	N	0.008670	0.305280	-0.014653
N2	N	-0.079663	0.294947	-0.034187
N3	N	-0.101130	0.214480	-0.021520
H3	H	0.102670	0.225013	0.053280
H4	H	0.082870	0.199480	-0.061387
H5	H	-0.041997	0.173880	0.098413

loop_
_geom_bond_atom_site_label_1
_geom_bond_atom_site_label_2
_geom_bond_distance
_ccdc_geom_bond_type
X1	C1	0.09006	. A
X1	C5	0.08983	. A
C1	C2	0.08979	. A
C1	H2	0.07272	. A
C2	C3	0.09003	. A
C2	H1	0.07262	. A
C3	C4	0.09052	. A
C3	C6	0.09495	. A
C4	C5	0.09014	. A
C4	Br1	0.12634	. A
C5	F1	0.09030	. A
C6	C7	0.08004	. A
C7	C8	0.09720	. A
C8	C9	0.10013	. A
C8	N3	0.09846	. A
C8	H5	0.07307	. A
C9	N1	0.09601	. A
C9	H3	0.07285	. A
C9	H4	0.07310	. A
N1	N2	0.09106	. A
N2	N3	0.08424	. A
