data_tobacco_crystal_2_PM
_symmetry_space_group_name_H-M	'P1'
_cell_length_a	15.000000
_cell_length_b	15.000000
_cell_length_c	15.000000
_cell_angle_alpha	90.000000
_cell_angle_beta	90.000000
_cell_angle_gamma	90.000000
_symmetry_Int_Tables_number 1

loop_
_symmetry_equiv_pos_as_xyz
'x,y,z'

loop_
_atom_site_label
_atom_site_type_symbol
_atom_site_fract_x
_atom_site_fract_y
_atom_site_fract_z
X1	C	0.053733	-0.325032	-0.016818
C1	C	-0.029200	-0.289365	-0.004352
C2	C	-0.034667	-0.200365	0.009648
C3	C	0.036000	-0.144098	0.012115
C4	C	0.116400	-0.180565	-0.004818
C5	C	0.124933	-0.269098	-0.019218
C6	C	0.023000	-0.046098	0.039315
H1	H	-0.100200	-0.172832	0.021982
C7	C	-0.115200	-0.345032	-0.004552
H2	H	0.192067	-0.292498	-0.031618
H3	H	0.175533	-0.138565	-0.004685
O1	O	0.071200	0.022568	-0.009218
C8	C	-0.065400	0.086102	0.037315
C9	C	-0.072867	-0.013565	0.033915
C10	C	0.050800	0.190502	-0.032752
H4	H	-0.115267	-0.039698	0.087182
H5	H	-0.089867	0.113568	0.100382
H6	H	-0.107333	0.112968	-0.016018
H7	H	-0.102800	-0.031832	-0.030418
H8	H	0.064200	0.116235	0.091248
C11	C	0.034133	0.106302	0.025315
H9	H	0.045733	-0.041765	0.108915
C12	C	-0.204933	-0.296232	-0.002618
H10	H	-0.213333	-0.257098	0.058448
H11	H	-0.212067	-0.251898	-0.060285
H12	H	-0.259667	-0.344432	-0.005085
H13	H	-0.113800	-0.390032	0.053115
H14	H	-0.117067	-0.385298	-0.065485
C13	C	0.130267	0.248435	-0.004352
C14	C	0.109667	0.337302	-0.049085
N1	N	0.011600	0.342035	-0.051085
N2	N	-0.022200	0.256235	-0.024418
C15	C	0.144400	0.419102	-0.007285
H15	H	-0.074733	0.237968	-0.064018
H16	H	-0.009467	0.389568	-0.006618
H17	H	0.193667	0.220635	-0.027618
H18	H	0.132400	0.334635	-0.118552
H19	H	0.133733	0.255568	0.068382
H20	H	0.058533	0.171168	-0.102885
C16	C	0.158067	0.494502	0.016582

loop_
_geom_bond_atom_site_label_1
_geom_bond_atom_site_label_2
_geom_bond_distance
_ccdc_geom_bond_type
X1	C1	0.09113	. A
X1	C5	0.09057	. A
C1	C2	0.09026	. A
C1	C7	0.10244	. A
C2	C3	0.09036	. A
C2	H1	0.07214	. A
C3	C4	0.08989	. A
C3	C6	0.10253	. A
C4	C5	0.09010	. A
C4	H3	0.07253	. A
C5	H2	0.07217	. A
C6	O1	0.09692	. A
C6	C9	0.10138	. A
C6	H9	0.07335	. A
C7	C12	0.10216	. A
C7	H13	0.07316	. A
C7	H14	0.07306	. A
O1	C11	0.09787	. A
C8	C9	0.10000	. A
C8	H5	0.07301	. A
C8	H6	0.07297	. A
C8	C11	0.10227	. A
C9	H4	0.07292	. A
C9	H7	0.07327	. A
C10	C11	0.10363	. A
C10	C13	0.10236	. A
C10	N2	0.09859	. A
C10	H20	0.07316	. A
H8	C11	0.07314	. A
C12	H10	0.07301	. A
C12	H11	0.07309	. A
C12	H12	0.07297	. A
C13	C14	0.10160	. A
C13	H17	0.07303	. A
C13	H19	0.07316	. A
C14	N1	0.09820	. A
C14	C15	0.09821	. A
C14	H18	0.07314	. A
N1	N2	0.09600	. A
N1	H16	0.06841	. A
N2	H15	0.06828	. A
C15	C16	0.08026	. A
