data_tobacco_crystal_2_PM
_symmetry_space_group_name_H-M	'P1'
_cell_length_a	15.000000
_cell_length_b	15.000000
_cell_length_c	15.000000
_cell_angle_alpha	90.000000
_cell_angle_beta	90.000000
_cell_angle_gamma	90.000000
_symmetry_Int_Tables_number 1

loop_
_symmetry_equiv_pos_as_xyz
'x,y,z'

loop_
_atom_site_label
_atom_site_type_symbol
_atom_site_fract_x
_atom_site_fract_y
_atom_site_fract_z
X1	C	-0.028215	-0.170937	-0.000230
C1	C	-0.109415	-0.130004	-0.003163
C2	C	-0.117081	-0.039670	0.009837
C3	C	-0.042748	0.010930	0.023170
C4	C	0.037652	-0.031204	0.026770
C5	C	0.043652	-0.119870	0.016770
C6	C	-0.038348	0.108263	0.038304
Br1	Br	-0.232815	0.014663	0.011904
Cl1	Cl	-0.206681	-0.192404	-0.023763
H1	H	0.110452	-0.146137	0.023704
C7	C	0.158319	0.046130	-0.035030
C8	C	-0.081881	0.175196	-0.002230
H2	H	-0.135615	0.167730	-0.049563
H3	H	0.015119	0.127930	0.083970
H4	H	0.186052	0.112063	-0.021163
H5	H	0.112319	0.051796	-0.091563
H6	H	0.212785	0.000930	-0.052363
O1	O	0.116452	0.014596	0.044637

loop_
_geom_bond_atom_site_label_1
_geom_bond_atom_site_label_2
_geom_bond_distance
_ccdc_geom_bond_type
X1	C1	0.09098	. A
X1	C5	0.08979	. A
C1	C2	0.09159	. A
C1	Cl1	0.11738	. A
C2	C3	0.09090	. A
C3	C4	0.09084	. A
C3	C6	0.09860	. A
C4	C5	0.08943	. A
C4	O1	0.09288	. A
C5	H1	0.07211	. A
C6	C8	0.08954	. A
C6	H3	0.07301	. A
C7	H4	0.07286	. A
C7	H5	0.07310	. A
C7	H6	0.07287	. A
C7	O1	0.09536	. A
C8	H2	0.07200	. A
