data_tobacco_crystal_2_PM
_symmetry_space_group_name_H-M	'P1'
_cell_length_a	15.000000
_cell_length_b	15.000000
_cell_length_c	15.000000
_cell_angle_alpha	90.000000
_cell_angle_beta	90.000000
_cell_angle_gamma	90.000000
_symmetry_Int_Tables_number 1

loop_
_symmetry_equiv_pos_as_xyz
'x,y,z'

loop_
_atom_site_label
_atom_site_type_symbol
_atom_site_fract_x
_atom_site_fract_y
_atom_site_fract_z
X1	C	0.047147	-0.253234	0.002467
C1	C	-0.029053	-0.205301	-0.002333
C2	C	-0.030653	-0.114834	-0.002533
C3	C	0.049280	-0.069834	0.000600
C4	C	0.126080	-0.118234	0.007733
C5	C	0.124480	-0.208434	0.009467
C6	C	0.056614	0.027899	-0.013933
C7	C	-0.121586	-0.068568	-0.005933
H1	H	-0.091120	-0.242301	-0.007667
H2	H	0.187614	-0.243368	0.015533
C8	C	0.212147	-0.076568	0.013933
C9	C	0.002947	0.094232	0.013533
C10	C	0.007280	0.188032	-0.021400
H3	H	-0.053053	0.081632	0.057267
H4	H	0.112014	0.047366	-0.057133
N1	N	0.282280	-0.044368	0.018667
C11	C	0.085880	0.245232	0.004133
N2	N	0.041280	0.329699	0.013467
N3	N	-0.048186	0.320366	0.025400
N4	N	-0.069253	0.239966	0.013933
H5	H	0.138014	0.247832	-0.046800
H6	H	0.115347	0.227366	0.068533
H7	H	-0.000253	0.186699	-0.094267
C12	C	-0.206653	-0.124568	-0.001267
H8	H	-0.208520	-0.164234	0.060133
H9	H	-0.213186	-0.169034	-0.058600
H10	H	-0.264986	-0.080634	-0.000200
H11	H	-0.126586	-0.025968	0.053067
H12	H	-0.125320	-0.026834	-0.065800

loop_
_geom_bond_atom_site_label_1
_geom_bond_atom_site_label_2
_geom_bond_distance
_ccdc_geom_bond_type
X1	C1	0.09015	. A
X1	C5	0.08965	. A
C1	C2	0.09048	. A
C1	H1	0.07245	. A
C2	C3	0.09178	. A
C2	C7	0.10208	. A
C3	C4	0.09106	. A
C3	C6	0.09908	. A
C4	C5	0.09023	. A
C4	C8	0.09582	. A
C5	H2	0.07241	. A
C6	C9	0.08964	. A
C6	H4	0.07290	. A
C7	C12	0.10195	. A
C7	H11	0.07294	. A
C7	H12	0.07307	. A
C8	N1	0.07732	. A
C9	C10	0.10019	. A
C9	H3	0.07216	. A
C10	C11	0.10051	. A
C10	N4	0.09901	. A
C10	H7	0.07327	. A
C11	N2	0.09597	. A
C11	H5	0.07293	. A
C11	H6	0.07304	. A
N2	N3	0.09074	. A
N3	N4	0.08390	. A
C12	H8	0.07312	. A
C12	H9	0.07285	. A
C12	H10	0.07303	. A
