data_tobacco_crystal_2_PM
_symmetry_space_group_name_H-M	'P1'
_cell_length_a	15.000000
_cell_length_b	15.000000
_cell_length_c	15.000000
_cell_angle_alpha	90.000000
_cell_angle_beta	90.000000
_cell_angle_gamma	90.000000
_symmetry_Int_Tables_number 1

loop_
_symmetry_equiv_pos_as_xyz
'x,y,z'

loop_
_atom_site_label
_atom_site_type_symbol
_atom_site_fract_x
_atom_site_fract_y
_atom_site_fract_z
X1	C	-0.036295	-0.462888	0.034908
C1	C	-0.113962	-0.425822	0.009975
C2	C	-0.119962	-0.337688	-0.007558
C3	C	-0.047095	-0.283222	0.001775
C4	C	0.030305	-0.322288	0.027975
C5	C	0.036105	-0.410755	0.043975
C6	C	-0.051095	-0.183155	-0.021158
Br1	Br	-0.233428	-0.299755	-0.049092
H1	H	-0.172628	-0.468355	0.002642
H2	H	0.099638	-0.438755	0.064975
H3	H	0.090572	-0.282222	0.035308
C7	C	0.020438	-0.112155	0.002842
C8	C	-0.026495	-0.028022	-0.032425
N1	N	-0.122562	-0.045555	-0.013958
N2	N	-0.127562	-0.135955	0.018308
C9	C	-0.006495	0.068845	-0.008025
H4	H	-0.185695	-0.165755	-0.001625
H5	H	-0.143362	-0.002822	0.035442
H6	H	0.083572	-0.124355	-0.031558
H7	H	-0.018562	-0.031022	-0.105425
H8	H	0.032838	-0.108755	0.074908
H9	H	-0.057762	-0.182555	-0.094292
C10	C	0.085238	0.108378	-0.008092
N3	N	0.065105	0.190045	0.042642
N4	N	-0.004495	0.170645	0.100975
N5	N	-0.037628	0.095578	0.081775
C11	C	0.060505	0.275112	-0.005158
H10	H	0.132838	0.069578	0.031308
H11	H	0.112705	0.123178	-0.073892
H12	H	-0.046628	0.108578	-0.055225
C12	C	0.142105	0.333845	0.004575
C13	C	0.107772	0.424778	-0.025825
N6	N	0.009305	0.420845	-0.013892
N7	N	-0.008362	0.335512	0.028842
H13	H	-0.069762	0.310378	0.013308
H14	H	-0.009628	0.473712	0.025842
H15	H	0.164972	0.335912	0.074108
H16	H	0.121305	0.435312	-0.096892
H17	H	0.197505	0.310512	-0.036625
H18	H	0.046638	0.261112	-0.075692

loop_
_geom_bond_atom_site_label_1
_geom_bond_atom_site_label_2
_geom_bond_distance
_ccdc_geom_bond_type
X1	C1	0.08960	. A
X1	C5	0.08968	. A
X1	H14	0.06937	. A
C1	C2	0.09006	. A
C1	H1	0.07283	. A
C2	C3	0.09145	. A
C2	Br1	0.12664	. A
C3	C4	0.09057	. A
C3	C6	0.10274	. A
C4	C5	0.09009	. A
C4	H3	0.07274	. A
C5	H2	0.07254	. A
C5	H14	0.12557	. A
C6	C7	0.10361	. A
C6	N2	0.09815	. A
C6	H9	0.07344	. A
C7	C8	0.10259	. A
C7	H6	0.07292	. A
C7	H8	0.07320	. A
C8	N1	0.09938	. A
C8	C9	0.10187	. A
C8	H7	0.07349	. A
N1	N2	0.09612	. A
N1	H5	0.06855	. A
N2	H4	0.06830	. A
C9	C10	0.09989	. A
C9	N5	0.09873	. A
C9	H12	0.07360	. A
C10	N3	0.09823	. A
C10	H10	0.07296	. A
C10	H11	0.07282	. A
N3	N4	0.09286	. A
N3	C11	0.09768	. A
N4	N5	0.08427	. A
C11	C12	0.10101	. A
C11	N7	0.09771	. A
C11	H18	0.07323	. A
C12	C13	0.10184	. A
C12	H15	0.07323	. A
C12	H17	0.07288	. A
C13	N6	0.09927	. A
C13	H16	0.07311	. A
N6	N7	0.09706	. A
N6	H14	0.06879	. A
N7	H13	0.06814	. A
