data_tobacco_crystal_2_PM
_symmetry_space_group_name_H-M	'P1'
_cell_length_a	15.000000
_cell_length_b	15.000000
_cell_length_c	15.000000
_cell_angle_alpha	90.000000
_cell_angle_beta	90.000000
_cell_angle_gamma	90.000000
_symmetry_Int_Tables_number 1

loop_
_symmetry_equiv_pos_as_xyz
'x,y,z'

loop_
_atom_site_label
_atom_site_type_symbol
_atom_site_fract_x
_atom_site_fract_y
_atom_site_fract_z
X1	C	0.016519	-0.183267	0.002110
C1	C	-0.064614	-0.144267	0.002310
C2	C	-0.074414	-0.055067	0.000843
C3	C	-0.000681	-0.002533	-0.000757
C4	C	0.080986	-0.041200	-0.001157
C5	C	0.089652	-0.130800	0.000843
C6	C	-0.009681	0.092000	-0.001824
Br1	Br	-0.192214	-0.009667	0.001110
H1	H	-0.124481	-0.185600	0.003310
H2	H	0.156652	-0.158000	0.001110
Cl1	Cl	0.178852	0.021667	-0.005957
C7	C	-0.016281	0.171533	-0.001490
C8	C	-0.020814	0.272667	-0.000557
C9	C	-0.019481	0.352533	0.000110

loop_
_geom_bond_atom_site_label_1
_geom_bond_atom_site_label_2
_geom_bond_distance
_ccdc_geom_bond_type
X1	C1	0.09002	. A
X1	C5	0.09002	. A
C1	C2	0.08975	. A
C1	H1	0.07276	. A
C2	C3	0.09055	. A
C2	Br1	0.12625	. A
C3	C4	0.09036	. A
C3	C6	0.09497	. A
C4	C5	0.09004	. A
C4	Cl1	0.11642	. A
C5	H2	0.07231	. A
C6	C7	0.07981	. A
C7	C8	0.10124	. A
C8	C9	0.07988	. A
