data_tobacco_crystal_2_PM
_symmetry_space_group_name_H-M	'P1'
_cell_length_a	15.000000
_cell_length_b	15.000000
_cell_length_c	15.000000
_cell_angle_alpha	90.000000
_cell_angle_beta	90.000000
_cell_angle_gamma	90.000000
_symmetry_Int_Tables_number 1

loop_
_symmetry_equiv_pos_as_xyz
'x,y,z'

loop_
_atom_site_label
_atom_site_type_symbol
_atom_site_fract_x
_atom_site_fract_y
_atom_site_fract_z
X1	C	0.033186	-0.222976	0.011533
C1	C	-0.045681	-0.181510	0.023867
C2	C	-0.051814	-0.091376	0.014267
C3	C	0.022386	-0.040376	-0.001667
C4	C	0.103386	-0.082843	-0.003800
C5	C	0.106652	-0.172910	-0.000667
C6	C	0.011786	0.061224	-0.020667
C7	C	-0.191614	-0.060910	-0.051733
Cl1	Cl	-0.140948	-0.241976	0.054000
H1	H	0.171119	-0.204643	-0.010067
C8	C	0.192519	-0.035710	-0.010133
H2	H	-0.241348	-0.112243	-0.037200
H3	H	-0.155214	-0.077310	-0.112867
H4	H	-0.227281	0.001757	-0.062267
O1	O	-0.134148	-0.049243	0.023467
H5	H	0.201652	-0.004110	-0.075333
H6	H	0.248586	-0.081576	-0.000267
H7	H	0.199786	0.013224	0.043533
O2	O	0.093186	0.111357	-0.010400
C9	C	-0.024281	0.209157	0.023867
C10	C	-0.058548	0.115024	0.029600
H8	H	-0.124814	0.110690	-0.000467
H9	H	-0.050481	0.252157	0.076600
H10	H	-0.042948	0.238690	-0.040400
H11	H	-0.063014	0.094224	0.099533
H12	H	0.096452	0.190624	0.099800
C11	C	0.075386	0.195890	0.030067
H13	H	-0.003948	0.065690	-0.092200

loop_
_geom_bond_atom_site_label_1
_geom_bond_atom_site_label_2
_geom_bond_distance
_ccdc_geom_bond_type
X1	C1	0.08995	. A
X1	C5	0.08974	. A
C1	C2	0.09085	. A
C1	Cl1	0.11679	. A
C2	C3	0.09144	. A
C2	O1	0.09294	. A
C3	C4	0.09148	. A
C3	C6	0.10390	. A
C4	C5	0.09018	. A
C4	C8	0.10103	. A
C5	H1	0.07247	. A
C6	O2	0.09615	. A
C6	C10	0.10182	. A
C6	H13	0.07338	. A
C7	H2	0.07294	. A
C7	H3	0.07302	. A
C7	H4	0.07287	. A
C7	O1	0.09536	. A
C8	H5	0.07303	. A
C8	H6	0.07311	. A
C8	H7	0.07299	. A
O2	C11	0.09540	. A
C9	C10	0.10034	. A
C9	H9	0.07291	. A
C9	H10	0.07315	. A
C9	C11	0.10074	. A
C10	H8	0.07290	. A
C10	H11	0.07310	. A
H12	C11	0.07304	. A
