data_tobacco_crystal_2_PM
_symmetry_space_group_name_H-M	'P1'
_cell_length_a	15.000000
_cell_length_b	15.000000
_cell_length_c	15.000000
_cell_angle_alpha	90.000000
_cell_angle_beta	90.000000
_cell_angle_gamma	90.000000
_symmetry_Int_Tables_number 1

loop_
_symmetry_equiv_pos_as_xyz
'x,y,z'

loop_
_atom_site_label
_atom_site_type_symbol
_atom_site_fract_x
_atom_site_fract_y
_atom_site_fract_z
X1	C	-0.026800	-0.279146	0.015874
C1	C	-0.112667	-0.251879	0.022741
C2	C	-0.134400	-0.166013	0.007341
C3	C	-0.071267	-0.106946	-0.017792
C4	C	0.014800	-0.134546	-0.025459
C5	C	0.036333	-0.219479	-0.005992
N1	N	-0.093533	-0.020479	-0.037592
H1	H	-0.203333	-0.144613	0.012741
H2	H	-0.165933	-0.298813	0.038874
H3	H	0.106000	-0.236479	-0.013592
C6	C	0.140733	-0.040213	-0.004926
N2	N	-0.060933	0.033054	0.016941
C7	C	-0.046467	0.120921	-0.021526
C8	C	0.041000	0.157121	0.012341
N3	N	0.013600	0.241254	0.048208
N4	N	-0.077533	0.249921	0.048274
N5	N	-0.113333	0.183454	0.012741
N6	N	0.063000	0.314787	0.028808
H4	H	0.090533	0.165454	-0.040726
H5	H	0.070133	0.118254	0.066808
H6	H	-0.046800	0.120054	-0.094792
N7	N	0.024933	0.358787	-0.031259
H7	H	0.114067	-0.030146	0.062208
H8	H	0.201533	-0.080013	-0.002659
H9	H	0.158333	0.024721	-0.033192
O1	O	0.078000	-0.079013	-0.064392

loop_
_geom_bond_atom_site_label_1
_geom_bond_atom_site_label_2
_geom_bond_distance
_ccdc_geom_bond_type
X1	C1	0.09035	. A
X1	C5	0.08958	. A
C1	C2	0.08990	. A
C1	H2	0.07280	. A
C2	C3	0.09004	. A
C2	H1	0.07238	. A
C3	C4	0.09071	. A
C3	N1	0.09146	. A
C4	C5	0.08976	. A
C4	O1	0.09270	. A
C5	H3	0.07211	. A
N1	N2	0.08308	. A
C6	H7	0.07293	. A
C6	H8	0.07270	. A
C6	H9	0.07297	. A
C6	O1	0.09475	. A
N2	C7	0.09700	. A
C7	C8	0.10054	. A
C7	N5	0.09775	. A
C7	H6	0.07327	. A
C8	N3	0.09548	. A
C8	H4	0.07307	. A
C8	H5	0.07298	. A
N3	N4	0.09154	. A
N3	N6	0.09069	. A
N4	N5	0.08344	. A
N6	N7	0.08362	. A
