data_tobacco_crystal_2_PM
_symmetry_space_group_name_H-M	'P1'
_cell_length_a	15.000000
_cell_length_b	15.000000
_cell_length_c	15.000000
_cell_angle_alpha	90.000000
_cell_angle_beta	90.000000
_cell_angle_gamma	90.000000
_symmetry_Int_Tables_number 1

loop_
_symmetry_equiv_pos_as_xyz
'x,y,z'

loop_
_atom_site_label
_atom_site_type_symbol
_atom_site_fract_x
_atom_site_fract_y
_atom_site_fract_z
X1	C	-0.028812	-0.270956	-0.013353
C1	C	-0.098412	-0.231889	0.028047
C2	C	-0.106012	-0.142156	0.027914
C3	C	-0.044812	-0.090622	-0.014020
C4	C	0.021788	-0.131622	-0.059553
C5	C	0.030388	-0.220956	-0.058953
C6	C	-0.046546	0.007511	-0.008086
H1	H	-0.161346	-0.111956	0.063714
H2	H	-0.147546	-0.272089	0.062980
H3	H	0.085588	-0.251422	-0.094620
H4	H	0.070588	-0.092756	-0.096153
C7	C	-0.116346	0.054644	-0.040153
C8	C	-0.118346	0.144111	-0.033686
C9	C	-0.049546	0.189711	0.002847
C10	C	0.021054	0.142711	0.034514
C11	C	0.022521	0.052111	0.030914
N1	N	-0.052812	0.281444	0.011580
H5	H	-0.176346	0.180044	-0.058086
H6	H	-0.172812	0.020511	-0.070553
C12	C	0.174054	0.001378	0.032047
C13	C	0.095121	0.189711	0.071847
H7	H	0.197988	-0.067622	0.033780
H8	H	0.172254	0.023644	-0.037353
H9	H	0.220788	0.041844	0.070514
O1	O	0.088854	0.003111	0.074114
N2	N	0.157788	0.226844	0.098180
N3	N	-0.039079	0.324711	-0.058420

loop_
_geom_bond_atom_site_label_1
_geom_bond_atom_site_label_2
_geom_bond_distance
_ccdc_geom_bond_type
X1	C1	0.08991	. A
X1	C5	0.08991	. A
C1	C2	0.09005	. A
C1	H2	0.07246	. A
C2	C3	0.09033	. A
C2	H1	0.07249	. A
C3	C4	0.09050	. A
C3	C6	0.09833	. A
C4	C5	0.08975	. A
C4	H4	0.07233	. A
C5	H3	0.07244	. A
C6	C7	0.09012	. A
C6	C11	0.09100	. A
C7	C8	0.08972	. A
C7	H6	0.07265	. A
C8	C9	0.09026	. A
C8	H5	0.07246	. A
C9	C10	0.09053	. A
C9	N1	0.09221	. A
C10	C11	0.09068	. A
C10	C13	0.09533	. A
C11	O1	0.09310	. A
N1	N3	0.08343	. A
C12	H7	0.07305	. A
C12	H8	0.07291	. A
C12	H9	0.07281	. A
C12	O1	0.09503	. A
C13	N2	0.07746	. A
