data_tobacco_crystal_2_PM
_symmetry_space_group_name_H-M	'P1'
_cell_length_a	15.000000
_cell_length_b	15.000000
_cell_length_c	15.000000
_cell_angle_alpha	90.000000
_cell_angle_beta	90.000000
_cell_angle_gamma	90.000000
_symmetry_Int_Tables_number 1

loop_
_symmetry_equiv_pos_as_xyz
'x,y,z'

loop_
_atom_site_label
_atom_site_type_symbol
_atom_site_fract_x
_atom_site_fract_y
_atom_site_fract_z
X1	C	0.055448	-0.199139	-0.009733
C1	C	-0.028219	-0.164272	-0.014333
C2	C	-0.041485	-0.075472	-0.004467
C3	C	0.027515	-0.017939	0.005267
C4	C	0.110448	-0.053405	0.004800
C5	C	0.125448	-0.142205	-0.000467
C6	C	0.012648	0.081261	0.023667
O1	O	-0.128752	-0.044805	0.001800
N1	N	-0.107552	-0.216739	-0.027000
C7	C	0.215448	-0.172539	0.006000
H1	H	0.167181	-0.008072	0.012667
O2	O	0.082648	0.138795	-0.009333
C8	C	-0.049152	0.224661	-0.006733
C9	C	-0.071219	0.126528	-0.011533
H2	H	-0.084085	0.107928	-0.081000
H3	H	-0.069952	0.258261	-0.068200
H4	H	-0.084285	0.257461	0.048333
H5	H	-0.130552	0.111661	0.028200
H6	H	0.065181	0.239528	0.079533
C10	C	0.051315	0.227661	0.008667
H7	H	0.013781	0.087928	0.096733
N2	N	0.287181	-0.202272	0.005467
H8	H	-0.097552	-0.282339	-0.042333
H9	H	-0.154152	-0.189205	-0.067867
H10	H	-0.167285	-0.093272	0.021867

loop_
_geom_bond_atom_site_label_1
_geom_bond_atom_site_label_2
_geom_bond_distance
_ccdc_geom_bond_type
X1	C1	0.09076	. A
X1	C5	0.09070	. A
C1	C2	0.09033	. A
C1	N1	0.09595	. A
C2	C3	0.09036	. A
C2	O1	0.09271	. A
C3	C4	0.09020	. A
C3	C6	0.10198	. A
C4	C5	0.09021	. A
C4	H1	0.07305	. A
C5	C7	0.09519	. A
C6	O2	0.09643	. A
C6	C9	0.10160	. A
C6	H7	0.07338	. A
O1	H10	0.06509	. A
N1	H8	0.06811	. A
N1	H9	0.06782	. A
C7	N2	0.07765	. A
O2	C10	0.09593	. A
C8	C9	0.10070	. A
C8	H3	0.07307	. A
C8	H4	0.07309	. A
C8	C10	0.10168	. A
C9	H2	0.07306	. A
C9	H5	0.07294	. A
H6	C10	0.07318	. A
