data_tobacco_crystal_2_PM
_symmetry_space_group_name_H-M	'P1'
_cell_length_a	15.000000
_cell_length_b	15.000000
_cell_length_c	15.000000
_cell_angle_alpha	90.000000
_cell_angle_beta	90.000000
_cell_angle_gamma	90.000000
_symmetry_Int_Tables_number 1

loop_
_symmetry_equiv_pos_as_xyz
'x,y,z'

loop_
_atom_site_label
_atom_site_type_symbol
_atom_site_fract_x
_atom_site_fract_y
_atom_site_fract_z
X1	C	0.002757	-0.329611	0.022537
C1	C	-0.076377	-0.287944	0.031204
C2	C	-0.081910	-0.200544	0.015870
C3	C	-0.009977	-0.149211	-0.004596
C4	C	0.072157	-0.188877	-0.001130
C5	C	0.076623	-0.279344	0.008070
C6	C	-0.028577	-0.053011	-0.036796
H1	H	-0.149377	-0.174477	0.017670
H2	H	-0.137177	-0.324411	0.045937
N1	N	0.161290	-0.324944	-0.003196
C7	C	0.155557	-0.131677	-0.007796
O1	O	0.035423	0.016856	-0.016730
C8	C	-0.108177	0.076856	-0.000130
C9	C	-0.119643	-0.020011	-0.006996
C10	C	0.010823	0.186389	-0.008063
H3	H	-0.172110	-0.037944	-0.054463
H4	H	-0.122977	0.106523	-0.065463
H5	H	-0.153910	0.105189	0.049204
H6	H	-0.138710	-0.043877	0.059337
H7	H	0.002223	0.083989	0.096337
C11	C	-0.010310	0.090723	0.024737
H8	H	-0.028643	-0.057211	-0.109930
H9	H	0.150890	-0.073011	0.035537
H10	H	0.168490	-0.110877	-0.076530
H11	H	0.215023	-0.165611	0.017470
H12	H	0.193357	-0.295944	-0.056396
H13	H	0.202423	-0.304477	0.047470
O2	O	0.091223	0.233989	0.015470
C12	C	-0.027377	0.337923	0.000737
C13	C	-0.057977	0.249189	0.032737
H14	H	-0.127110	0.238256	0.013270
H15	H	-0.045910	0.388923	0.049604
H16	H	-0.059243	0.355056	-0.062663
H17	H	-0.053443	0.245723	0.105870
H18	H	0.088890	0.326656	-0.084196
C14	C	0.072957	0.324789	-0.012663
H19	H	0.008823	0.185989	-0.081330

loop_
_geom_bond_atom_site_label_1
_geom_bond_atom_site_label_2
_geom_bond_distance
_ccdc_geom_bond_type
X1	C1	0.08985	. A
X1	C5	0.09051	. A
C1	C2	0.08891	. A
C1	H2	0.07241	. A
C2	C3	0.09071	. A
C2	H1	0.07235	. A
C3	C4	0.09128	. A
C3	C6	0.10314	. A
C4	C5	0.09104	. A
C4	C7	0.10135	. A
C5	N1	0.09682	. A
C6	O1	0.09685	. A
C6	C9	0.10134	. A
C6	H8	0.07325	. A
N1	H12	0.06855	. A
N1	H13	0.06840	. A
C7	H9	0.07308	. A
C7	H10	0.07297	. A
C7	H11	0.07298	. A
O1	C11	0.09627	. A
C8	C9	0.09778	. A
C8	H4	0.07326	. A
C8	H5	0.07299	. A
C8	C11	0.10192	. A
C9	H3	0.07299	. A
C9	H6	0.07303	. A
C10	C11	0.10332	. A
C10	O2	0.09635	. A
C10	C13	0.10170	. A
C10	H19	0.07330	. A
H7	C11	0.07300	. A
O2	C14	0.09680	. A
C12	C13	0.09917	. A
C12	H15	0.07302	. A
C12	H16	0.07300	. A
C12	C14	0.10207	. A
C13	H14	0.07265	. A
C13	H17	0.07336	. A
H18	C14	0.07331	. A
