data_tobacco_crystal_2_PM
_symmetry_space_group_name_H-M	'P1'
_cell_length_a	15.000000
_cell_length_b	15.000000
_cell_length_c	15.000000
_cell_angle_alpha	90.000000
_cell_angle_beta	90.000000
_cell_angle_gamma	90.000000
_symmetry_Int_Tables_number 1

loop_
_symmetry_equiv_pos_as_xyz
'x,y,z'

loop_
_atom_site_label
_atom_site_type_symbol
_atom_site_fract_x
_atom_site_fract_y
_atom_site_fract_z
X1	C	-0.050309	-0.126315	-0.019885
C1	C	-0.125909	-0.076315	-0.019618
C2	C	-0.124042	0.013352	-0.015352
C3	C	-0.045709	0.056885	-0.013685
C4	C	0.029024	0.007018	-0.014285
C5	C	0.030091	-0.083515	-0.014818
C6	C	-0.033976	0.153018	-0.007152
H1	H	-0.187309	0.048418	-0.013152
F1	F	-0.207642	-0.114182	-0.022885
C7	C	0.124491	-0.120582	-0.005018
H2	H	0.092758	0.042085	-0.012952
C8	C	0.140558	-0.203382	0.051382
H3	H	0.184558	-0.187448	0.107448
H4	H	0.079891	-0.232115	0.079315
H5	H	0.174891	-0.253915	0.011448
H6	H	0.165624	-0.069248	0.027782
H7	H	0.154358	-0.128248	-0.071418
C9	C	-0.093042	0.219818	-0.010352
N1	N	-0.062842	0.305352	-0.000885
H8	H	-0.163976	0.209085	-0.019618
H9	H	0.034958	0.174218	0.002448
N2	N	-0.116442	0.366018	-0.018752

loop_
_geom_bond_atom_site_label_1
_geom_bond_atom_site_label_2
_geom_bond_distance
_ccdc_geom_bond_type
X1	C1	0.09064	. A
X1	C5	0.09122	. A
C1	C2	0.08979	. A
C1	F1	0.09014	. A
C2	C3	0.08963	. A
C2	H1	0.07237	. A
C3	C4	0.08984	. A
C3	C6	0.09707	. A
C4	C5	0.09054	. A
C4	H2	0.07276	. A
C5	C7	0.10189	. A
C6	C9	0.08923	. A
C6	H9	0.07276	. A
C7	C8	0.10146	. A
C7	H6	0.07350	. A
C7	H7	0.07321	. A
C8	H3	0.07303	. A
C8	H4	0.07271	. A
C8	H5	0.07299	. A
C9	N1	0.09120	. A
C9	H8	0.07234	. A
N1	N2	0.08290	. A
