data_tobacco_crystal_2_PM
_symmetry_space_group_name_H-M	'P1'
_cell_length_a	15.000000
_cell_length_b	15.000000
_cell_length_c	15.000000
_cell_angle_alpha	90.000000
_cell_angle_beta	90.000000
_cell_angle_gamma	90.000000
_symmetry_Int_Tables_number 1

loop_
_symmetry_equiv_pos_as_xyz
'x,y,z'

loop_
_atom_site_label
_atom_site_type_symbol
_atom_site_fract_x
_atom_site_fract_y
_atom_site_fract_z
X1	C	-0.008295	-0.438980	-0.010319
C1	C	-0.083695	-0.389713	-0.006986
C2	C	-0.079028	-0.300446	0.002481
C3	C	0.000305	-0.257780	0.008281
C4	C	0.075238	-0.307446	0.002614
C5	C	0.070838	-0.396580	-0.006786
N1	N	0.003505	-0.168980	0.029947
H1	H	-0.140562	-0.262313	0.007747
H2	H	-0.148962	-0.421513	-0.009519
F1	F	0.147905	-0.443246	-0.009586
H3	H	0.139972	-0.275713	0.008214
N2	N	0.002105	-0.111646	-0.030786
C6	C	-0.019562	-0.024046	0.008414
C7	C	0.043772	0.051554	-0.015986
C8	C	-0.009095	0.130420	0.022547
N3	N	-0.103162	0.107220	0.000081
N4	N	-0.104828	0.012554	-0.021986
C9	C	0.015772	0.228154	0.005214
H4	H	-0.155762	-0.020246	0.009214
H5	H	-0.120962	0.142487	-0.055653
H6	H	0.108972	0.043087	0.015747
H7	H	-0.004028	0.124287	0.095614
H8	H	0.053572	0.057287	-0.088253
H9	H	-0.021962	-0.029580	0.081614
C10	C	-0.049162	0.291020	0.000814
C11	C	-0.030762	0.378220	-0.007386
C12	C	0.054505	0.406087	-0.011253
C13	C	0.120505	0.344687	-0.009586
C14	C	0.101305	0.256887	-0.001919
H10	H	-0.085628	0.425420	-0.008586
H11	H	-0.119095	0.273020	0.007414
H12	H	0.156372	0.209887	0.001281
H13	H	0.189905	0.365954	-0.012653

loop_
_geom_bond_atom_site_label_1
_geom_bond_atom_site_label_2
_geom_bond_distance
_ccdc_geom_bond_type
X1	C1	0.09013	. A
X1	C5	0.08985	. A
C1	C2	0.08989	. A
C1	H2	0.07265	. A
C2	C3	0.09027	. A
C2	H1	0.07258	. A
C3	C4	0.09008	. A
C3	N1	0.09146	. A
C4	C5	0.08974	. A
C4	H3	0.07231	. A
C5	F1	0.09014	. A
N1	N2	0.08353	. A
N2	C6	0.09839	. A
C6	C7	0.10160	. A
C6	N4	0.09764	. A
C6	H9	0.07345	. A
C7	C8	0.10247	. A
C7	H6	0.07300	. A
C7	H8	0.07315	. A
C8	N3	0.09946	. A
C8	C9	0.10233	. A
C8	H7	0.07350	. A
N3	N4	0.09722	. A
N3	H5	0.06831	. A
N4	H4	0.06814	. A
C9	C10	0.09049	. A
C9	C14	0.09051	. A
C10	C11	0.08950	. A
C10	H11	0.07251	. A
C11	C12	0.08979	. A
C11	H10	0.07239	. A
C12	C13	0.09016	. A
C13	C14	0.09020	. A
C13	H13	0.07265	. A
C14	H12	0.07247	. A
