data_tobacco_crystal_2_PM
_symmetry_space_group_name_H-M	'P1'
_cell_length_a	15.000000
_cell_length_b	15.000000
_cell_length_c	15.000000
_cell_angle_alpha	90.000000
_cell_angle_beta	90.000000
_cell_angle_gamma	90.000000
_symmetry_Int_Tables_number 1

loop_
_symmetry_equiv_pos_as_xyz
'x,y,z'

loop_
_atom_site_label
_atom_site_type_symbol
_atom_site_fract_x
_atom_site_fract_y
_atom_site_fract_z
X1	C	0.028891	-0.500594	-0.005314
C1	C	-0.048976	-0.456394	-0.015447
C2	C	-0.051576	-0.367127	-0.010380
C3	C	0.022358	-0.317461	0.006753
C4	C	0.100424	-0.362594	0.013286
C5	C	0.103958	-0.452394	0.007286
C6	C	0.015558	-0.218861	0.016286
H1	H	-0.116509	-0.336727	-0.020047
H2	H	-0.110909	-0.492327	-0.026714
H3	H	0.168891	-0.483061	0.015086
H4	H	0.162558	-0.327327	0.024886
C7	C	-0.063242	-0.181527	0.039286
C8	C	-0.075909	-0.093261	0.036420
C9	C	-0.009642	-0.036927	0.013020
C10	C	0.073691	-0.071594	0.002286
C11	C	0.084158	-0.161594	0.001953
C12	C	-0.032709	0.057473	-0.016047
H5	H	-0.143309	-0.070194	0.048886
H6	H	-0.120976	-0.221594	0.056620
H7	H	0.150091	-0.187461	-0.013047
C13	C	0.153758	-0.012194	-0.012714
O1	O	0.008158	0.132139	0.028686
C14	C	-0.128576	0.182739	-0.031914
C15	C	-0.131109	0.083006	-0.019247
C16	C	-0.006642	0.299673	0.010686
H8	H	-0.167642	0.048673	-0.072247
H9	H	-0.152576	0.203139	-0.097780
H10	H	-0.172642	0.212473	0.017886
H11	H	-0.164376	0.069539	0.044420
H12	H	-0.000176	0.202139	-0.087380
C17	C	-0.029842	0.206206	-0.020180
H13	H	-0.009042	0.059673	-0.085714
H14	H	0.167958	0.025473	0.048353
H15	H	0.143624	0.034873	-0.067447
H16	H	0.214024	-0.050461	-0.028180
C18	C	-0.069309	0.358673	0.038020
C19	C	-0.050776	0.445939	0.046220
C20	C	0.031824	0.475806	0.027620
C21	C	0.097024	0.417539	0.006220
C22	C	0.077491	0.330206	-0.002114
H17	H	-0.103909	0.491873	0.064020
H18	H	-0.137909	0.339006	0.049486
H19	H	0.129691	0.284606	-0.023714
H20	H	0.164158	0.440806	-0.008047

loop_
_geom_bond_atom_site_label_1
_geom_bond_atom_site_label_2
_geom_bond_distance
_ccdc_geom_bond_type
X1	C1	0.09011	. A
X1	C5	0.09009	. A
X1	C19	0.10891	. A
X1	C20	0.04062	. A
X1	C21	0.10713	. A
C1	C2	0.08945	. A
C1	H2	0.07248	. A
C1	C19	0.11552	. A
C1	C20	0.11393	. A
C1	H17	0.10959	. A
C2	C3	0.09070	. A
C2	H1	0.07235	. A
C3	C4	0.09041	. A
C3	C6	0.09929	. A
C4	C5	0.09007	. A
C4	H4	0.07238	. A
C5	H3	0.07223	. A
C5	C20	0.10379	. A
C5	H20	0.12355	. A
C6	C7	0.09018	. A
C6	C11	0.09050	. A
H3	H20	0.07971	. A
C7	C8	0.08922	. A
C7	H6	0.07238	. A
C8	C9	0.09007	. A
C8	H5	0.07232	. A
C9	C10	0.09089	. A
C9	C12	0.10143	. A
C10	C11	0.09061	. A
C10	C13	0.10082	. A
C11	H7	0.07240	. A
C12	O1	0.09616	. A
C12	C15	0.10171	. A
C12	H13	0.07361	. A
C13	H14	0.07314	. A
C13	H15	0.07290	. A
C13	H16	0.07305	. A
O1	C17	0.09653	. A
C14	C15	0.10057	. A
C14	H9	0.07301	. A
C14	H10	0.07284	. A
C14	C17	0.10216	. A
C15	H8	0.07296	. A
C15	H11	0.07309	. A
C16	C17	0.10113	. A
C16	C18	0.09031	. A
C16	C22	0.09041	. A
H12	C17	0.07357	. A
C18	C19	0.08959	. A
C18	H18	0.07228	. A
C19	C20	0.08978	. A
C19	H17	0.07246	. A
C20	C21	0.09002	. A
C21	C22	0.08988	. A
C21	H20	0.07247	. A
C22	H19	0.07260	. A
