data_tobacco_crystal_2_PM
_symmetry_space_group_name_H-M	'P1'
_cell_length_a	15.000000
_cell_length_b	15.000000
_cell_length_c	15.000000
_cell_angle_alpha	90.000000
_cell_angle_beta	90.000000
_cell_angle_gamma	90.000000
_symmetry_Int_Tables_number 1

loop_
_symmetry_equiv_pos_as_xyz
'x,y,z'

loop_
_atom_site_label
_atom_site_type_symbol
_atom_site_fract_x
_atom_site_fract_y
_atom_site_fract_z
X1	C	0.026422	-0.225250	0.004981
C1	C	-0.048978	-0.180983	0.026314
C2	C	-0.051844	-0.090783	0.027381
C3	C	0.022222	-0.043183	0.005647
C4	C	0.099022	-0.088517	-0.009419
C5	C	0.101089	-0.177917	-0.009553
C6	C	0.019956	0.056883	-0.011419
C7	C	-0.200311	-0.049983	-0.006686
H1	H	-0.109511	-0.218583	0.041381
F1	F	0.179222	-0.218983	-0.027486
H2	H	0.160956	-0.054583	-0.025219
H3	H	-0.218644	-0.117983	-0.025486
H4	H	-0.183778	-0.010450	-0.065686
H5	H	-0.258044	-0.019317	0.025781
O1	O	-0.128711	-0.048117	0.055447
C8	C	0.105422	0.109950	-0.005686
N1	N	0.066556	0.196750	0.002847
N2	N	-0.015178	0.192617	0.042914
N3	N	-0.040111	0.111883	0.044781
N4	N	0.116756	0.271150	-0.003886
H6	H	0.144222	0.096217	0.054647
H7	H	0.147089	0.105217	-0.065353
H8	H	-0.005644	0.063350	-0.080086
N5	N	0.071822	0.340617	0.003847

loop_
_geom_bond_atom_site_label_1
_geom_bond_atom_site_label_2
_geom_bond_distance
_ccdc_geom_bond_type
X1	C1	0.09000	. A
X1	C5	0.08959	. A
C1	C2	0.09025	. A
C1	H1	0.07284	. A
C2	C3	0.09069	. A
C2	O1	0.09229	. A
C3	C4	0.09045	. A
C3	C6	0.10154	. A
C4	C5	0.08942	. A
C4	H2	0.07237	. A
C5	F1	0.09007	. A
C6	C8	0.10076	. A
C6	N3	0.09895	. A
C6	H8	0.07357	. A
C7	H3	0.07289	. A
C7	H4	0.07292	. A
C7	H5	0.07299	. A
C7	O1	0.09482	. A
C8	N1	0.09549	. A
C8	H6	0.07304	. A
C8	H7	0.07293	. A
N1	N2	0.09112	. A
N1	N4	0.09000	. A
N2	N3	0.08452	. A
N4	N5	0.08309	. A
