data_tobacco_crystal_2_PM
_symmetry_space_group_name_H-M	'P1'
_cell_length_a	15.000000
_cell_length_b	15.000000
_cell_length_c	15.000000
_cell_angle_alpha	90.000000
_cell_angle_beta	90.000000
_cell_angle_gamma	90.000000
_symmetry_Int_Tables_number 1

loop_
_symmetry_equiv_pos_as_xyz
'x,y,z'

loop_
_atom_site_label
_atom_site_type_symbol
_atom_site_fract_x
_atom_site_fract_y
_atom_site_fract_z
X1	C	-0.008590	-0.490847	0.018659
C1	C	-0.089124	-0.451714	0.008859
C2	C	-0.095524	-0.365514	-0.015341
C3	C	-0.021924	-0.315647	-0.031408
C4	C	0.058410	-0.354314	-0.016608
C5	C	0.065276	-0.440380	0.008392
C6	C	-0.027257	-0.221114	-0.068741
H1	H	-0.161990	-0.337780	-0.024208
H2	H	-0.150324	-0.489714	0.018592
H3	H	0.131876	-0.466647	0.018059
H4	H	0.119410	-0.316514	-0.027075
C7	C	0.026276	-0.149314	-0.022141
N1	N	-0.033524	-0.073847	-0.029875
N2	N	-0.118390	-0.102514	-0.047141
N3	N	-0.118657	-0.183847	-0.066341
C8	C	-0.021324	0.003220	0.027192
H5	H	0.089610	-0.134514	-0.055075
H6	H	0.037143	-0.164114	0.048525
H7	H	-0.007924	-0.224314	-0.139275
O1	O	0.027410	0.073553	-0.017541
C9	C	-0.087724	0.144153	0.059859
C10	C	-0.106857	0.045620	0.061992
C11	C	0.044276	0.239620	0.002592
H8	H	-0.165257	0.032886	0.020059
H9	H	-0.105190	0.178420	0.121792
H10	H	-0.129057	0.171553	0.006325
H11	H	-0.122990	0.021420	0.128792
H12	H	0.048610	0.138020	0.100725
C12	C	0.011743	0.149953	0.038392
H13	H	0.019210	-0.017780	0.084259
C13	C	-0.014390	0.304486	-0.020075
C14	C	0.012476	0.387953	-0.035675
C15	C	0.099076	0.410353	-0.029408
C16	C	0.159476	0.346353	-0.011341
C17	C	0.132010	0.262220	0.004459
C18	C	0.117143	0.503086	-0.035008
H14	H	-0.037790	0.438553	-0.049275
H15	H	-0.085657	0.293486	-0.022475
H16	H	0.181543	0.211886	0.022325
H17	H	0.229943	0.362886	-0.006208
C19	C	0.098543	0.580753	-0.029608

loop_
_geom_bond_atom_site_label_1
_geom_bond_atom_site_label_2
_geom_bond_distance
_ccdc_geom_bond_type
X1	C1	0.09007	. A
X1	C5	0.09005	. A
X1	H14	0.10223	. A
C1	C2	0.08976	. A
C1	H2	0.07269	. A
C2	C3	0.09034	. A
C2	H1	0.07256	. A
C3	C4	0.09037	. A
C3	C6	0.10178	. A
C4	C5	0.08989	. A
C4	H4	0.07252	. A
C4	C19	0.07743	. A
C5	H3	0.07224	. A
C5	C18	0.08815	. A
C5	C19	0.05475	. A
C6	C7	0.10096	. A
C6	N3	0.09873	. A
C6	H7	0.07320	. A
H3	C18	0.06284	. A
H3	C19	0.07503	. A
C7	N1	0.09660	. A
C7	H5	0.07290	. A
C7	H6	0.07301	. A
N1	N2	0.09123	. A
N1	C8	0.09667	. A
N2	N3	0.08357	. A
C8	O1	0.09655	. A
C8	C10	0.10161	. A
C8	H13	0.07308	. A
O1	C12	0.09597	. A
C9	C10	0.10040	. A
C9	H9	0.07290	. A
C9	H10	0.07297	. A
C9	C12	0.10192	. A
C10	H8	0.07301	. A
C10	H11	0.07286	. A
C11	C12	0.10188	. A
C11	C13	0.09035	. A
C11	C17	0.09062	. A
H12	C12	0.07340	. A
C13	C14	0.08906	. A
C13	H15	0.07215	. A
C14	C15	0.08967	. A
C14	H14	0.07261	. A
C15	C16	0.08984	. A
C15	C18	0.09464	. A
C16	C17	0.08990	. A
C16	H17	0.07256	. A
C17	H16	0.07284	. A
C18	C19	0.08005	. A
