data_tobacco_crystal_2_PM
_symmetry_space_group_name_H-M	'P1'
_cell_length_a	15.000000
_cell_length_b	15.000000
_cell_length_c	15.000000
_cell_angle_alpha	90.000000
_cell_angle_beta	90.000000
_cell_angle_gamma	90.000000
_symmetry_Int_Tables_number 1

loop_
_symmetry_equiv_pos_as_xyz
'x,y,z'

loop_
_atom_site_label
_atom_site_type_symbol
_atom_site_fract_x
_atom_site_fract_y
_atom_site_fract_z
X1	C	0.025103	-0.120938	0.009482
C1	C	-0.054297	-0.078872	-0.002185
C2	C	-0.057697	0.011395	-0.012051
C3	C	0.017969	0.061662	-0.008851
C4	C	0.096103	0.018662	0.005749
C5	C	0.099636	-0.070672	0.014749
N1	N	0.018303	0.152395	-0.025251
Br1	Br	-0.170897	0.065262	-0.033651
O1	O	-0.132964	-0.127538	-0.005251
H1	H	0.165036	-0.099272	0.025349
Cl1	Cl	0.196636	0.076862	0.011815
H2	H	-0.185764	-0.090405	-0.012051
N2	N	-0.017164	0.201462	0.032149

loop_
_geom_bond_atom_site_label_1
_geom_bond_atom_site_label_2
_geom_bond_distance
_ccdc_geom_bond_type
X1	C1	0.09061	. A
X1	C5	0.09005	. A
C1	C2	0.09087	. A
C1	O1	0.09255	. A
C2	C3	0.09090	. A
C3	C4	0.09037	. A
C3	N1	0.09220	. A
C4	C5	0.08986	. A
C4	Cl1	0.11632	. A
C5	H1	0.07216	. A
N1	N2	0.08343	. A
O1	H2	0.06491	. A
