data_tobacco_crystal_2_PM
_symmetry_space_group_name_H-M	'P1'
_cell_length_a	15.000000
_cell_length_b	15.000000
_cell_length_c	15.000000
_cell_angle_alpha	90.000000
_cell_angle_beta	90.000000
_cell_angle_gamma	90.000000
_symmetry_Int_Tables_number 1

loop_
_symmetry_equiv_pos_as_xyz
'x,y,z'

loop_
_atom_site_label
_atom_site_type_symbol
_atom_site_fract_x
_atom_site_fract_y
_atom_site_fract_z
X1	C	-0.023057	-0.280560	0.000148
C1	C	-0.099590	-0.231626	-0.001519
C2	C	-0.099257	-0.141960	-0.001452
C3	C	-0.020990	-0.098493	-0.000852
C4	C	0.054610	-0.146626	-0.002186
C5	C	0.056676	-0.236626	-0.000786
C6	C	-0.008324	-0.003493	0.004214
H1	H	-0.162590	-0.106693	-0.000719
H2	H	-0.164857	-0.263493	-0.001252
C7	C	0.151410	-0.270560	0.003814
H3	H	0.117943	-0.110693	-0.003119
C8	C	-0.067657	0.062240	-0.001852
C9	C	-0.046724	0.157640	0.000081
H4	H	-0.137790	0.044374	-0.008452
H5	H	0.060676	0.013440	0.015281
C10	C	-0.120257	0.209907	0.002614
C11	C	-0.114657	0.298974	0.002481
C12	C	-0.034457	0.338707	0.000814
C13	C	0.039943	0.288707	-0.001652
C14	C	0.035276	0.198374	-0.003386
H6	H	-0.175990	0.337440	0.003481
H7	H	-0.186990	0.181174	0.004214
C15	C	0.119610	0.152907	-0.009852
H8	H	0.105143	0.320640	-0.003119
H9	H	0.180943	-0.272826	-0.062986
H10	H	0.192810	-0.225026	0.043881
H11	H	0.159210	-0.334160	0.037414
N1	N	0.188943	0.118307	-0.015252

loop_
_geom_bond_atom_site_label_1
_geom_bond_atom_site_label_2
_geom_bond_distance
_ccdc_geom_bond_type
X1	C1	0.09085	. A
X1	C5	0.09104	. A
C1	C2	0.08967	. A
C1	H2	0.07263	. A
C2	C3	0.08953	. A
C2	H1	0.07249	. A
C3	C4	0.08963	. A
C3	C6	0.09597	. A
C4	C5	0.09003	. A
C4	H3	0.07282	. A
C5	C7	0.10073	. A
C6	C8	0.08876	. A
C6	H5	0.07190	. A
C7	H9	0.07307	. A
C7	H10	0.07343	. A
C7	H11	0.07235	. A
C8	C9	0.09769	. A
C8	H4	0.07267	. A
C9	C10	0.09025	. A
C9	C14	0.09163	. A
C10	C11	0.08924	. A
C10	H7	0.07267	. A
C11	C12	0.08952	. A
C11	H6	0.07240	. A
C12	C13	0.08967	. A
C13	C14	0.09047	. A
C13	H8	0.07261	. A
C14	C15	0.09603	. A
C15	N1	0.07768	. A
