data_tobacco_crystal_2_PM
_symmetry_space_group_name_H-M	'P1'
_cell_length_a	15.000000
_cell_length_b	15.000000
_cell_length_c	15.000000
_cell_angle_alpha	90.000000
_cell_angle_beta	90.000000
_cell_angle_gamma	90.000000
_symmetry_Int_Tables_number 1

loop_
_symmetry_equiv_pos_as_xyz
'x,y,z'

loop_
_atom_site_label
_atom_site_type_symbol
_atom_site_fract_x
_atom_site_fract_y
_atom_site_fract_z
X1	C	0.017684	-0.349042	0.009402
C1	C	-0.061316	-0.306442	0.007469
C2	C	-0.067049	-0.217309	0.001936
C3	C	0.008018	-0.166042	-0.002064
C4	C	0.087151	-0.209642	0.000936
C5	C	0.092351	-0.299109	0.006602
C6	C	0.002951	-0.064642	-0.011598
O1	O	-0.152249	-0.181976	-0.000531
H1	H	-0.123782	-0.344042	0.009802
H2	H	0.158618	-0.327842	0.007802
F1	F	0.163818	-0.163309	-0.003798
H3	H	-0.153782	-0.118576	0.013002
C7	C	0.074951	-0.001109	0.021469
N1	N	0.020818	0.076224	0.047469
N2	N	-0.063716	0.046824	0.066936
N3	N	-0.074982	-0.030909	0.039469
C8	C	0.023484	0.159091	-0.004598
H4	H	0.125218	0.016158	-0.028398
H5	H	0.107618	-0.025642	0.082069
H6	H	-0.008849	-0.050509	-0.082531
O2	O	0.084684	0.222758	0.032736
C9	C	-0.041049	0.305958	-0.009931
C10	C	-0.065516	0.208558	-0.010064
H7	H	-0.103249	0.188624	-0.069264
H8	H	-0.070449	0.338091	0.048802
H9	H	-0.066582	0.341091	-0.068598
H10	H	-0.108516	0.196558	0.047802
H11	H	0.086951	0.306691	-0.074198
C11	C	0.060284	0.306758	-0.005998
H12	H	0.046484	0.142758	-0.072131

loop_
_geom_bond_atom_site_label_1
_geom_bond_atom_site_label_2
_geom_bond_distance
_ccdc_geom_bond_type
X1	C1	0.08977	. A
X1	C5	0.08987	. A
C1	C2	0.08949	. A
C1	H1	0.07295	. A
C2	C3	0.09099	. A
C2	O1	0.09227	. A
C3	C4	0.09040	. A
C3	C6	0.10197	. A
C4	C5	0.08980	. A
C4	F1	0.08970	. A
C5	H2	0.07224	. A
C6	C7	0.10156	. A
C6	N3	0.09909	. A
C6	H6	0.07328	. A
O1	H3	0.06485	. A
C7	N1	0.09791	. A
C7	H4	0.07288	. A
C7	H5	0.07308	. A
N1	N2	0.09159	. A
N1	C8	0.09790	. A
N2	N3	0.08321	. A
C8	O2	0.09588	. A
C8	C10	0.10197	. A
C8	H12	0.07319	. A
O2	C11	0.09566	. A
C9	C10	0.10043	. A
C9	H8	0.07312	. A
C9	H9	0.07299	. A
C9	C11	0.10141	. A
C10	H7	0.07298	. A
C10	H10	0.07309	. A
H11	C11	0.07323	. A
