data_tobacco_crystal_2_PM
_symmetry_space_group_name_H-M	'P1'
_cell_length_a	15.000000
_cell_length_b	15.000000
_cell_length_c	15.000000
_cell_angle_alpha	90.000000
_cell_angle_beta	90.000000
_cell_angle_gamma	90.000000
_symmetry_Int_Tables_number 1

loop_
_symmetry_equiv_pos_as_xyz
'x,y,z'

loop_
_atom_site_label
_atom_site_type_symbol
_atom_site_fract_x
_atom_site_fract_y
_atom_site_fract_z
X1	C	0.043755	-0.317685	-0.005883
C1	C	-0.035045	-0.274752	-0.000616
C2	C	-0.039445	-0.184685	0.005984
C3	C	0.037221	-0.135752	0.006384
C4	C	0.115955	-0.179885	-0.000683
C5	C	0.119088	-0.269152	-0.006816
C6	C	0.042688	-0.039685	0.023384
Br1	Br	-0.155045	-0.135685	0.019651
H1	H	-0.096445	-0.313419	0.000451
F1	F	0.199621	-0.309152	-0.011616
H2	H	0.178821	-0.143619	0.000051
C7	C	-0.005845	0.026115	-0.013216
C8	C	-0.003045	0.120581	0.020051
H3	H	-0.053312	0.011448	-0.065949
H4	H	0.092288	-0.020885	0.073251
O1	O	0.062621	0.170381	-0.027883
C9	C	-0.060979	0.265381	0.002584
C10	C	-0.090712	0.169581	0.006451
H5	H	-0.122045	0.151648	-0.057149
H6	H	-0.056979	0.293048	0.070117
H7	H	-0.106712	0.307648	-0.035483
H8	H	-0.138979	0.156848	0.059717
H9	H	0.026621	0.269648	-0.112949
C11	C	0.030688	0.259648	-0.040749
H10	H	0.015221	0.122381	0.090917

loop_
_geom_bond_atom_site_label_1
_geom_bond_atom_site_label_2
_geom_bond_distance
_ccdc_geom_bond_type
X1	C1	0.08989	. A
X1	C5	0.08962	. A
C1	C2	0.09042	. A
C1	H1	0.07257	. A
C2	C3	0.09095	. A
C2	Br1	0.12630	. A
C3	C4	0.09054	. A
C3	C6	0.09771	. A
C4	C5	0.08953	. A
C4	H2	0.07258	. A
C5	F1	0.09005	. A
C6	C7	0.08958	. A
C6	H4	0.07280	. A
C7	C8	0.10019	. A
C7	H3	0.07245	. A
C8	O1	0.09534	. A
C8	C10	0.10135	. A
C8	H10	0.07321	. A
O1	C11	0.09568	. A
C9	C10	0.10038	. A
C9	H6	0.07309	. A
C9	H7	0.07299	. A
C9	C11	0.10156	. A
C10	H5	0.07313	. A
C10	H8	0.07300	. A
H9	C11	0.07300	. A
