data_tobacco_crystal_2_PM
_symmetry_space_group_name_H-M	'P1'
_cell_length_a	15.000000
_cell_length_b	15.000000
_cell_length_c	15.000000
_cell_angle_alpha	90.000000
_cell_angle_beta	90.000000
_cell_angle_gamma	90.000000
_symmetry_Int_Tables_number 1

loop_
_symmetry_equiv_pos_as_xyz
'x,y,z'

loop_
_atom_site_label
_atom_site_type_symbol
_atom_site_fract_x
_atom_site_fract_y
_atom_site_fract_z
X1	C	0.004859	-0.423038	0.008380
C1	C	-0.071808	-0.375838	0.004980
C2	C	-0.071875	-0.285638	0.002646
C3	C	0.006792	-0.240638	0.004380
C4	C	0.083259	-0.288505	0.010780
C5	C	0.082659	-0.378172	0.013113
C6	C	0.017659	-0.145305	-0.013087
C7	C	-0.156941	-0.242305	-0.005820
H1	H	-0.135408	-0.411038	0.001446
H2	H	0.146992	-0.410838	0.016513
H3	H	0.147525	-0.254638	0.011980
N1	N	-0.226675	-0.209305	-0.012220
C8	C	-0.034475	-0.077038	0.011846
C9	C	-0.027941	0.011762	-0.034354
H4	H	-0.090675	-0.085972	0.056780
H5	H	0.072592	-0.130305	-0.058287
C10	C	0.036659	0.079828	0.002446
N2	N	-0.017608	0.158962	-0.001420
N3	N	-0.105675	0.138762	-0.013487
N4	N	-0.115008	0.057095	-0.028220
C11	C	0.008525	0.247228	0.005246
H6	H	0.096125	0.085362	-0.039420
H7	H	0.055592	0.067362	0.071780
H8	H	-0.014208	0.001028	-0.105487
C12	C	-0.053675	0.311628	0.014913
C13	C	-0.031741	0.398362	0.019180
C14	C	0.054325	0.423095	0.012646
C15	C	0.117925	0.359962	0.003913
C16	C	0.095059	0.272828	0.000780
H9	H	-0.084608	0.447295	0.027246
H10	H	-0.124141	0.294628	0.020046
H11	H	0.148259	0.224495	-0.007687
H12	H	0.187659	0.378895	-0.001554

loop_
_geom_bond_atom_site_label_1
_geom_bond_atom_site_label_2
_geom_bond_distance
_ccdc_geom_bond_type
X1	C1	0.09010	. A
X1	C5	0.08993	. A
C1	C2	0.09023	. A
C1	H1	0.07278	. A
C2	C3	0.09064	. A
C2	C7	0.09584	. A
C3	C4	0.09044	. A
C3	C6	0.09753	. A
C4	C5	0.08970	. A
C4	H3	0.07265	. A
C5	H2	0.07223	. A
C6	C8	0.08944	. A
C6	H5	0.07270	. A
C7	N1	0.07741	. A
C8	C9	0.10031	. A
C8	H4	0.07251	. A
C9	C10	0.10080	. A
C9	N4	0.09835	. A
C9	H8	0.07324	. A
C10	N2	0.09603	. A
C10	H6	0.07294	. A
C10	H7	0.07295	. A
N2	N3	0.09116	. A
N2	C11	0.09230	. A
N3	N4	0.08351	. A
C11	C12	0.09005	. A
C11	C16	0.09035	. A
C12	C13	0.08957	. A
C12	H10	0.07267	. A
C13	C14	0.08979	. A
C13	H9	0.07249	. A
C14	C15	0.09004	. A
C15	C16	0.09014	. A
C15	H12	0.07246	. A
C16	H11	0.07237	. A
