data_tobacco_crystal_2_PM
_symmetry_space_group_name_H-M	'P1'
_cell_length_a	15.000000
_cell_length_b	15.000000
_cell_length_c	15.000000
_cell_angle_alpha	90.000000
_cell_angle_beta	90.000000
_cell_angle_gamma	90.000000
_symmetry_Int_Tables_number 1

loop_
_symmetry_equiv_pos_as_xyz
'x,y,z'

loop_
_atom_site_label
_atom_site_type_symbol
_atom_site_fract_x
_atom_site_fract_y
_atom_site_fract_z
X1	C	-0.043138	-0.286074	-0.012405
C1	C	-0.118805	-0.238540	-0.021205
C2	C	-0.116071	-0.149407	-0.032671
C3	C	-0.037271	-0.103874	-0.035938
C4	C	0.039929	-0.152407	-0.027005
C5	C	0.035195	-0.242074	-0.015671
N1	N	-0.035805	-0.011274	-0.045938
Cl1	Cl	-0.218005	-0.094340	-0.042271
H1	H	-0.183138	-0.272140	-0.018271
H2	H	0.097662	-0.277807	-0.007805
C6	C	0.133195	-0.112340	-0.028938
N2	N	-0.044005	0.027326	0.027462
C7	C	-0.048871	0.124660	0.033062
C8	C	0.031062	0.178993	0.003529
C9	C	-0.003538	0.272393	0.024862
N3	N	-0.101805	0.266993	0.009062
N4	N	-0.120138	0.173126	-0.012871
H3	H	-0.180338	0.152660	0.011595
H4	H	-0.118671	0.309660	-0.041805
H5	H	0.091462	0.163926	0.041395
H6	H	0.006795	0.285993	0.096062
H7	H	0.045929	0.170860	-0.067738
H8	H	-0.057805	0.135993	0.104995
C10	C	0.149395	-0.031474	0.029995
H9	H	0.219929	-0.026474	0.047862
H10	H	0.133062	0.029193	-0.006605
H11	H	0.110862	-0.034074	0.091929
H12	H	0.151462	-0.096807	-0.098005
H13	H	0.181462	-0.162674	-0.006671

loop_
_geom_bond_atom_site_label_1
_geom_bond_atom_site_label_2
_geom_bond_distance
_ccdc_geom_bond_type
X1	C1	0.08979	. A
X1	C5	0.08990	. A
C1	C2	0.08991	. A
C1	H1	0.07264	. A
C2	C3	0.09107	. A
C2	Cl1	0.11625	. A
C3	C4	0.09162	. A
C3	N1	0.09315	. A
C4	C5	0.09050	. A
C4	C6	0.10153	. A
C5	H2	0.07239	. A
N1	N2	0.08334	. A
C6	C10	0.10137	. A
C6	H12	0.07311	. A
C6	H13	0.07320	. A
N2	C7	0.09762	. A
C7	C8	0.10106	. A
C7	N4	0.09766	. A
C7	H8	0.07337	. A
C8	C9	0.10186	. A
C8	H5	0.07286	. A
C8	H7	0.07325	. A
C9	N3	0.09968	. A
C9	H6	0.07322	. A
N3	N4	0.09812	. A
N3	H4	0.06850	. A
N4	H3	0.06813	. A
C10	H9	0.07293	. A
C10	H10	0.07271	. A
C10	H11	0.07299	. A
