data_tobacco_crystal_2_PM
_symmetry_space_group_name_H-M	'P1'
_cell_length_a	15.000000
_cell_length_b	15.000000
_cell_length_c	15.000000
_cell_angle_alpha	90.000000
_cell_angle_beta	90.000000
_cell_angle_gamma	90.000000
_symmetry_Int_Tables_number 1

loop_
_symmetry_equiv_pos_as_xyz
'x,y,z'

loop_
_atom_site_label
_atom_site_type_symbol
_atom_site_fract_x
_atom_site_fract_y
_atom_site_fract_z
X1	C	0.009038	-0.178842	0.000421
C1	C	-0.071763	-0.138308	-0.000379
C2	C	-0.078629	-0.048308	0.000354
C3	C	-0.003563	0.001492	0.004554
C4	C	0.077304	-0.038442	0.005154
C5	C	0.083371	-0.127975	0.002287
C6	C	-0.004763	0.096558	0.004821
C7	C	-0.163963	-0.006108	-0.006846
H1	H	-0.132429	-0.178575	-0.003046
H2	H	0.149704	-0.156175	0.001288
O1	O	0.153437	0.013892	0.007287
C8	C	0.008104	0.175492	0.002621
N1	N	0.031837	0.261492	-0.001913
N2	N	-0.034896	0.309892	0.006354
H3	H	0.208371	-0.017175	-0.006712
N3	N	-0.231162	0.031092	-0.016246

loop_
_geom_bond_atom_site_label_1
_geom_bond_atom_site_label_2
_geom_bond_distance
_ccdc_geom_bond_type
X1	C1	0.09040	. A
X1	C5	0.09009	. A
C1	C2	0.09026	. A
C1	H1	0.07286	. A
C2	C3	0.09018	. A
C2	C7	0.09547	. A
C3	C4	0.09019	. A
C3	C6	0.09507	. A
C4	C5	0.08978	. A
C4	O1	0.09241	. A
C5	H2	0.07209	. A
C6	C8	0.08001	. A
C7	N3	0.07738	. A
O1	H3	0.06464	. A
C8	N1	0.08933	. A
N1	N2	0.08285	. A
