data_tobacco_crystal_2_PM
_symmetry_space_group_name_H-M	'P1'
_cell_length_a	15.000000
_cell_length_b	15.000000
_cell_length_c	15.000000
_cell_angle_alpha	90.000000
_cell_angle_beta	90.000000
_cell_angle_gamma	90.000000
_symmetry_Int_Tables_number 1

loop_
_symmetry_equiv_pos_as_xyz
'x,y,z'

loop_
_atom_site_label
_atom_site_type_symbol
_atom_site_fract_x
_atom_site_fract_y
_atom_site_fract_z
X1	C	0.017947	-0.332240	-0.000533
C1	C	-0.060587	-0.288773	0.007667
C2	C	-0.062853	-0.199440	0.017200
C3	C	0.013413	-0.150707	0.018533
C4	C	0.091413	-0.194573	0.009333
C5	C	0.094213	-0.284107	-0.000333
N1	N	0.011880	-0.059907	0.029267
H1	H	-0.126853	-0.166573	0.024067
H2	H	-0.123587	-0.324840	0.006667
H3	H	0.159147	-0.314907	-0.008067
Cl1	Cl	0.192813	-0.137307	0.009400
N2	N	-0.037053	-0.017040	-0.022733
N3	N	0.009613	0.007493	-0.099333
N4	N	0.035413	0.086893	-0.104800
C6	C	0.035613	0.145427	-0.026000
O1	O	0.080680	0.230293	-0.038600
C7	C	-0.061520	0.267627	0.010133
C8	C	-0.059387	0.168027	0.002667
H4	H	-0.109987	0.145493	-0.044933
H5	H	-0.094253	0.294560	-0.049467
H6	H	-0.098387	0.290960	0.068600
H7	H	-0.075187	0.137027	0.066933
H8	H	0.060947	0.288893	0.081867
C9	C	0.035413	0.295360	0.013600
H9	H	0.071147	0.112360	0.028867

loop_
_geom_bond_atom_site_label_1
_geom_bond_atom_site_label_2
_geom_bond_distance
_ccdc_geom_bond_type
X1	C1	0.09013	. A
X1	C5	0.09019	. A
C1	C2	0.08987	. A
C1	H2	0.07260	. A
C2	C3	0.09052	. A
C2	H1	0.07227	. A
C3	C4	0.08996	. A
C3	N1	0.09145	. A
C4	C5	0.09010	. A
C4	Cl1	0.11645	. A
C5	H3	0.07228	. A
N1	N2	0.08328	. A
N2	N3	0.09299	. A
N3	N4	0.08367	. A
N4	C6	0.09816	. A
C6	O1	0.09691	. A
C6	C8	0.10177	. A
C6	H9	0.07326	. A
O1	C9	0.09491	. A
C7	C8	0.09990	. A
C7	H5	0.07314	. A
C7	H6	0.07295	. A
C7	C9	0.10088	. A
C8	H4	0.07303	. A
C8	H7	0.07308	. A
H8	C9	0.07317	. A
