data_tobacco_crystal_2_PM
_symmetry_space_group_name_H-M	'P1'
_cell_length_a	15.000000
_cell_length_b	15.000000
_cell_length_c	15.000000
_cell_angle_alpha	90.000000
_cell_angle_beta	90.000000
_cell_angle_gamma	90.000000
_symmetry_Int_Tables_number 1

loop_
_symmetry_equiv_pos_as_xyz
'x,y,z'

loop_
_atom_site_label
_atom_site_type_symbol
_atom_site_fract_x
_atom_site_fract_y
_atom_site_fract_z
X1	C	-0.026395	-0.331917	-0.000902
C1	C	-0.107329	-0.294250	0.011631
C2	C	-0.117862	-0.205383	0.003964
C3	C	-0.047529	-0.152983	-0.015569
C4	C	0.034138	-0.190050	-0.027969
C5	C	0.043538	-0.279317	-0.022236
C6	C	-0.057995	-0.058783	-0.021102
H1	H	-0.183729	-0.176517	0.014031
H2	H	-0.165129	-0.335250	0.027631
H3	H	0.109205	-0.306050	-0.036036
C7	C	0.151205	-0.102717	0.025898
H4	H	0.174338	-0.155583	0.070498
H5	H	0.107738	-0.056783	0.062231
H6	H	0.209271	-0.064917	0.002964
O1	O	0.108271	-0.139250	-0.050902
C8	C	-0.053462	0.021150	-0.020302
C9	C	-0.035329	0.113883	-0.012636
C10	C	-0.101995	0.172550	0.000498
C11	C	-0.083329	0.259750	0.010431
C12	C	0.001538	0.290550	0.007098
C13	C	0.067671	0.230550	-0.005702
C14	C	0.049471	0.143217	-0.015769
N1	N	0.022205	0.379417	0.018498
H7	H	-0.138062	0.305883	0.021698
H8	H	-0.170862	0.150217	0.003831
H9	H	0.104205	0.096750	-0.025902
H10	H	0.136538	0.253083	-0.007702
N2	N	-0.030329	0.432750	-0.018169

loop_
_geom_bond_atom_site_label_1
_geom_bond_atom_site_label_2
_geom_bond_distance
_ccdc_geom_bond_type
X1	C1	0.09014	. A
X1	C5	0.09007	. A
C1	C2	0.08982	. A
C1	H2	0.07265	. A
C2	C3	0.08986	. A
C2	H1	0.07262	. A
C3	C4	0.09054	. A
C3	C6	0.09494	. A
C4	C5	0.08994	. A
C4	O1	0.09275	. A
C5	H3	0.07223	. A
C6	C8	0.08007	. A
C7	H4	0.07293	. A
C7	H5	0.07293	. A
C7	H6	0.07298	. A
C7	O1	0.09527	. A
C8	C9	0.09480	. A
C9	C10	0.08977	. A
C9	C14	0.08978	. A
C10	C11	0.08973	. A
C10	H8	0.07247	. A
C11	C12	0.09034	. A
C11	H7	0.07246	. A
C12	C13	0.09021	. A
C12	N1	0.09195	. A
C13	C14	0.08978	. A
C13	H10	0.07249	. A
C14	H9	0.07251	. A
N1	N2	0.08336	. A
