data_tobacco_crystal_2_PM
_symmetry_space_group_name_H-M	'P1'
_cell_length_a	15.000000
_cell_length_b	15.000000
_cell_length_c	15.000000
_cell_angle_alpha	90.000000
_cell_angle_beta	90.000000
_cell_angle_gamma	90.000000
_symmetry_Int_Tables_number 1

loop_
_symmetry_equiv_pos_as_xyz
'x,y,z'

loop_
_atom_site_label
_atom_site_type_symbol
_atom_site_fract_x
_atom_site_fract_y
_atom_site_fract_z
X1	C	-0.034460	-0.166176	-0.000226
C1	C	-0.104993	-0.111976	0.016974
C2	C	-0.091926	-0.023376	0.018640
C3	C	-0.011460	0.013690	0.004107
C4	C	0.056607	-0.040710	-0.019093
C5	C	0.046340	-0.130576	-0.020893
C6	C	-0.004126	0.112357	0.023374
H1	H	-0.148060	0.019024	0.037174
C7	C	-0.250393	-0.147710	-0.027426
C8	C	0.197674	-0.171176	0.007574
H2	H	0.121340	-0.012310	-0.034626
H3	H	0.243540	-0.225776	-0.008026
H4	H	0.184274	-0.172843	0.079307
H5	H	0.229540	-0.108643	-0.011760
O1	O	0.117274	-0.187043	-0.041226
H6	H	-0.263926	-0.081510	-0.055026
H7	H	-0.227593	-0.192710	-0.080160
H8	H	-0.312660	-0.174110	-0.000093
O2	O	-0.187660	-0.143176	0.044040
C9	C	0.084007	0.160890	0.024307
N1	N	0.050274	0.248157	0.005507
N2	N	-0.028460	0.245490	-0.040293
N3	N	-0.057793	0.166890	-0.038960
N4	N	0.099274	0.323290	0.014707
H9	H	0.128807	0.143224	-0.030493
H10	H	0.118540	0.157824	0.088307
H11	H	-0.033393	0.122090	0.090174
N5	N	0.079407	0.376890	-0.045893

loop_
_geom_bond_atom_site_label_1
_geom_bond_atom_site_label_2
_geom_bond_distance
_ccdc_geom_bond_type
X1	C1	0.09060	. A
X1	C5	0.09068	. A
C1	C2	0.08957	. A
C1	O2	0.09241	. A
C2	C3	0.08978	. A
C2	H1	0.07275	. A
C3	C4	0.09017	. A
C3	C6	0.10080	. A
C4	C5	0.09047	. A
C4	H2	0.07238	. A
C5	O1	0.09292	. A
C6	C9	0.10062	. A
C6	N3	0.09869	. A
C6	H11	0.07358	. A
C7	H6	0.07299	. A
C7	H7	0.07298	. A
C7	H8	0.07295	. A
C7	O2	0.09520	. A
C8	H3	0.07300	. A
C8	H4	0.07299	. A
C8	H5	0.07280	. A
C8	O1	0.09538	. A
C9	N1	0.09543	. A
C9	H9	0.07295	. A
C9	H10	0.07279	. A
N1	N2	0.09112	. A
N1	N4	0.09017	. A
N2	N3	0.08391	. A
N4	N5	0.08331	. A
