data_tobacco_crystal_2_PM
_symmetry_space_group_name_H-M	'P1'
_cell_length_a	15.000000
_cell_length_b	15.000000
_cell_length_c	15.000000
_cell_angle_alpha	90.000000
_cell_angle_beta	90.000000
_cell_angle_gamma	90.000000
_symmetry_Int_Tables_number 1

loop_
_symmetry_equiv_pos_as_xyz
'x,y,z'

loop_
_atom_site_label
_atom_site_type_symbol
_atom_site_fract_x
_atom_site_fract_y
_atom_site_fract_z
X1	C	-0.001282	-0.387053	-0.007627
C1	C	-0.082882	-0.348920	-0.004893
C2	C	-0.091149	-0.260053	0.001107
C3	C	-0.018816	-0.206453	0.004773
C4	C	0.062518	-0.244787	-0.001760
C5	C	0.071384	-0.333720	-0.007960
C6	C	-0.030082	-0.108120	0.020973
F1	F	-0.174016	-0.225320	0.006907
H1	H	-0.143349	-0.388853	-0.005627
H2	H	0.138984	-0.359053	-0.011093
H3	H	0.122984	-0.204720	-0.000027
C7	C	0.048318	-0.046253	0.004507
N1	N	-0.001949	0.034613	-0.005693
N2	N	-0.084416	0.016013	-0.042093
N3	N	-0.098216	-0.066587	-0.035693
C8	C	0.028918	0.120680	-0.002693
H4	H	0.095184	-0.044853	0.060240
H5	H	0.084118	-0.061387	-0.057560
H6	H	-0.051749	-0.100187	0.090573
C9	C	-0.028416	0.189347	0.000307
C10	C	-0.013816	0.284613	-0.019560
H7	H	-0.098416	0.172680	0.010573
H8	H	0.100518	0.127880	-0.010160
C11	C	0.071384	0.332147	0.003307
N4	N	0.034451	0.419613	0.018907
N5	N	-0.054149	0.416480	0.039307
N6	N	-0.081949	0.338347	0.027707
H9	H	0.120451	0.332280	-0.050760
H10	H	0.102651	0.309213	0.065107
H11	H	-0.027216	0.292413	-0.091093

loop_
_geom_bond_atom_site_label_1
_geom_bond_atom_site_label_2
_geom_bond_distance
_ccdc_geom_bond_type
X1	C1	0.09011	. A
X1	C5	0.09014	. A
C1	C2	0.08945	. A
C1	H1	0.07247	. A
C2	C3	0.09010	. A
C2	F1	0.09004	. A
C3	C4	0.09015	. A
C3	C6	0.10029	. A
C4	C5	0.08959	. A
C4	H3	0.07256	. A
C5	H2	0.07226	. A
C6	C7	0.10122	. A
C6	N3	0.09787	. A
C6	H6	0.07332	. A
C7	N1	0.09576	. A
C7	H4	0.07283	. A
C7	H5	0.07323	. A
N1	N2	0.09204	. A
N1	C8	0.09148	. A
N2	N3	0.08399	. A
C8	C9	0.08951	. A
C8	H8	0.07235	. A
C9	C10	0.09841	. A
C9	H7	0.07269	. A
C10	C11	0.10021	. A
C10	N6	0.09881	. A
C10	H11	0.07319	. A
C11	N4	0.09622	. A
C11	H9	0.07301	. A
C11	H10	0.07296	. A
N4	N5	0.09097	. A
N5	N6	0.08374	. A
