data_tobacco_crystal_2_PM
_symmetry_space_group_name_H-M	'P1'
_cell_length_a	15.000000
_cell_length_b	15.000000
_cell_length_c	15.000000
_cell_angle_alpha	90.000000
_cell_angle_beta	90.000000
_cell_angle_gamma	90.000000
_symmetry_Int_Tables_number 1

loop_
_symmetry_equiv_pos_as_xyz
'x,y,z'

loop_
_atom_site_label
_atom_site_type_symbol
_atom_site_fract_x
_atom_site_fract_y
_atom_site_fract_z
X1	C	0.007728	-0.570677	-0.007174
C1	C	-0.074872	-0.536343	-0.000641
C2	C	-0.087739	-0.447677	-0.001841
C3	C	-0.018339	-0.390610	-0.010108
C4	C	0.063928	-0.426277	-0.021641
C5	C	0.077594	-0.514543	-0.019108
C6	C	-0.031139	-0.293543	-0.002708
H1	H	-0.155672	-0.423677	0.006359
H2	H	-0.132939	-0.579010	0.007559
H3	H	0.145928	-0.537010	-0.026508
H4	H	0.122128	-0.384077	-0.031308
C7	C	-0.109539	-0.253143	-0.022441
C8	C	-0.119672	-0.164677	-0.013508
C9	C	-0.051072	-0.113610	0.014092
C10	C	0.026394	-0.153343	0.036292
C11	C	0.035994	-0.241543	0.028026
C12	C	-0.056672	-0.014410	0.015892
H5	H	-0.183672	-0.134877	-0.030374
H6	H	-0.166672	-0.290210	-0.046774
H7	H	0.100328	-0.268810	0.046892
H8	H	0.083328	-0.115077	0.059826
C13	C	0.024794	0.028990	-0.024908
N1	N	-0.014272	0.112057	-0.053308
N2	N	-0.101806	0.093857	-0.078108
N3	N	-0.127072	0.021990	-0.042908
C14	C	-0.006072	0.181190	0.012892
H9	H	0.080461	0.038657	0.021359
H10	H	0.048928	-0.005877	-0.084441
H11	H	-0.069139	0.008790	0.084292
C15	C	0.077461	0.237523	0.006826
C16	C	0.045461	0.327790	0.043759
N4	N	-0.048672	0.311457	0.069826
N5	N	-0.076406	0.246857	0.005492
C17	C	0.051328	0.402057	-0.026908
H12	H	-0.136072	0.216723	0.018626
H13	H	-0.083872	0.369857	0.062692
H14	H	0.102394	0.242057	-0.061841
H15	H	0.083194	0.344323	0.104092
H16	H	0.130794	0.208523	0.047559
H17	H	-0.010272	0.150390	0.079292
C18	C	0.125994	0.466990	-0.010441
N6	N	0.078194	0.549857	-0.012441
N7	N	-0.011406	0.539723	-0.016574
N8	N	-0.030006	0.458790	-0.023108
H18	H	0.158528	0.460057	0.054559
H19	H	0.176994	0.465723	-0.062508
H20	H	0.055194	0.374790	-0.094574

loop_
_geom_bond_atom_site_label_1
_geom_bond_atom_site_label_2
_geom_bond_distance
_ccdc_geom_bond_type
X1	C1	0.08969	. A
X1	C5	0.09041	. A
X1	C16	0.11970	. A
X1	C17	0.05508	. A
X1	C18	0.12416	. A
X1	N7	0.11244	. A
X1	N8	0.05046	. A
X1	H20	0.11343	. A
C1	C2	0.08960	. A
C1	H2	0.07252	. A
C1	H13	0.11354	. A
C1	N7	0.10034	. A
C1	N8	0.05041	. A
C2	C3	0.09023	. A
C2	H1	0.07251	. A
C2	N7	0.07876	. A
C2	N8	0.11195	. A
C3	C4	0.09040	. A
C3	C6	0.09819	. A
C3	N6	0.11344	. A
C3	N7	0.07031	. A
C4	C5	0.08935	. A
C4	H4	0.07254	. A
C4	C18	0.12397	. A
C4	N6	0.02929	. A
C4	N7	0.08281	. A
C5	H3	0.07231	. A
C5	C17	0.08779	. A
C5	C18	0.05252	. A
C5	N6	0.06475	. A
C5	N7	0.10427	. A
C5	N8	0.11093	. A
C5	H18	0.11235	. A
C5	H19	0.11024	. A
C6	C7	0.09038	. A
C6	C11	0.09031	. A
H3	H19	0.04763	. A
C7	C8	0.08949	. A
C7	H6	0.07232	. A
C8	C9	0.08986	. A
C8	H5	0.07258	. A
C9	C10	0.08985	. A
C9	C12	0.09937	. A
C10	C11	0.08911	. A
C10	H8	0.07252	. A
C11	H7	0.07238	. A
C12	C13	0.10092	. A
C12	N3	0.09868	. A
C12	H11	0.07330	. A
C13	N1	0.09609	. A
C13	H9	0.07303	. A
C13	H10	0.07309	. A
N1	N2	0.09278	. A
N1	C14	0.09607	. A
N2	N3	0.08392	. A
C14	C15	0.10094	. A
C14	N5	0.09651	. A
C14	H17	0.07332	. A
C15	C16	0.10265	. A
C15	H14	0.07319	. A
C15	H16	0.07311	. A
C16	N4	0.09903	. A
C16	C17	0.10268	. A
C16	H15	0.07306	. A
N4	N5	0.09529	. A
N4	H13	0.06856	. A
N5	H12	0.06812	. A
C17	C18	0.10031	. A
C17	N8	0.09924	. A
C17	H20	0.07306	. A
C18	N6	0.09569	. A
C18	H18	0.07302	. A
C18	H19	0.07289	. A
N6	N7	0.09027	. A
N7	N8	0.08330	. A
