data_tobacco_crystal_2_PM
_symmetry_space_group_name_H-M	'P1'
_cell_length_a	15.000000
_cell_length_b	15.000000
_cell_length_c	15.000000
_cell_angle_alpha	90.000000
_cell_angle_beta	90.000000
_cell_angle_gamma	90.000000
_symmetry_Int_Tables_number 1

loop_
_symmetry_equiv_pos_as_xyz
'x,y,z'

loop_
_atom_site_label
_atom_site_type_symbol
_atom_site_fract_x
_atom_site_fract_y
_atom_site_fract_z
X1	C	0.043524	-0.216348	0.016800
C1	C	-0.029076	-0.162948	0.028800
C2	C	-0.020942	-0.074082	0.019733
C3	C	0.057658	-0.036215	0.000133
C4	C	0.130258	-0.088015	-0.009667
C5	C	0.123124	-0.177415	-0.001733
C6	C	0.061124	0.057852	-0.006467
H1	H	-0.079409	-0.032282	0.029400
C7	C	-0.172209	-0.198348	-0.018867
H2	H	0.183991	-0.215082	-0.011667
H3	H	0.194858	-0.058215	-0.024067
C8	C	0.061791	0.137852	-0.004800
C9	C	0.069658	0.231652	0.004333
C10	C	0.001991	0.289718	0.006600
N1	N	0.020724	0.377985	0.018733
H4	H	-0.067276	0.269318	-0.000333
H5	H	0.136924	0.256985	0.012133
H6	H	-0.202676	-0.132615	-0.027533
H7	H	-0.139742	-0.219415	-0.080800
H8	H	-0.224609	-0.246348	-0.002800
O1	O	-0.111276	-0.196415	0.054133
N2	N	-0.038409	0.432385	-0.002067

loop_
_geom_bond_atom_site_label_1
_geom_bond_atom_site_label_2
_geom_bond_distance
_ccdc_geom_bond_type
X1	C1	0.09092	. A
X1	C5	0.09053	. A
C1	C2	0.08970	. A
C1	O1	0.09230	. A
C2	C3	0.08942	. A
C2	H1	0.07252	. A
C3	C4	0.08972	. A
C3	C6	0.09436	. A
C4	C5	0.09003	. A
C4	H3	0.07258	. A
C5	H2	0.07226	. A
C6	C8	0.08002	. A
C7	H6	0.07297	. A
C7	H7	0.07303	. A
C7	H8	0.07286	. A
C7	O1	0.09511	. A
C8	C9	0.09457	. A
C9	C10	0.08919	. A
C9	H5	0.07230	. A
C10	N1	0.09104	. A
C10	H4	0.07254	. A
N1	N2	0.08300	. A
