data_tobacco_crystal_2_PM
_symmetry_space_group_name_H-M	'P1'
_cell_length_a	15.000000
_cell_length_b	15.000000
_cell_length_c	15.000000
_cell_angle_alpha	90.000000
_cell_angle_beta	90.000000
_cell_angle_gamma	90.000000
_symmetry_Int_Tables_number 1

loop_
_symmetry_equiv_pos_as_xyz
'x,y,z'

loop_
_atom_site_label
_atom_site_type_symbol
_atom_site_fract_x
_atom_site_fract_y
_atom_site_fract_z
X1	C	0.041349	-0.273379	-0.003872
C1	C	-0.041918	-0.239312	-0.003339
C2	C	-0.056851	-0.150712	0.001794
C3	C	0.015415	-0.094512	0.006261
C4	C	0.099815	-0.128179	0.009128
C5	C	0.111149	-0.217379	0.003528
C6	C	-0.004785	0.003621	0.000728
C7	C	-0.152385	-0.112246	0.002728
H1	H	-0.098385	-0.284446	-0.008472
H2	H	0.179015	-0.241912	0.003528
C8	C	0.182949	-0.071912	0.019794
C9	C	0.054082	0.073821	-0.039072
N1	N	0.000349	0.146354	-0.006872
N2	N	-0.032185	0.127954	0.076594
N3	N	-0.028985	0.044621	0.087261
C10	C	0.009815	0.235754	-0.037472
H3	H	0.119682	0.082288	-0.009072
H4	H	0.057615	0.071954	-0.111739
H5	H	-0.063585	0.009688	-0.042406
H6	H	0.197615	-0.035046	-0.041406
H7	H	0.242349	-0.112179	0.034061
H8	H	0.176415	-0.025846	0.076128
C11	C	0.091349	0.280888	-0.001406
N4	N	0.052215	0.361088	0.032928
N5	N	-0.038585	0.356688	0.036728
N6	N	-0.065251	0.289088	-0.004072
H9	H	0.141282	0.293288	-0.053139
H10	H	0.123282	0.243621	0.053128
H11	H	0.009215	0.235554	-0.110606
C12	C	-0.234118	-0.172179	0.005861
H12	H	-0.291985	-0.131979	0.025594
H13	H	-0.227385	-0.226446	0.053794
H14	H	-0.248451	-0.199179	-0.060406
H15	H	-0.158051	-0.068179	0.060928
H16	H	-0.162051	-0.071246	-0.057139

loop_
_geom_bond_atom_site_label_1
_geom_bond_atom_site_label_2
_geom_bond_distance
_ccdc_geom_bond_type
X1	C1	0.08997	. A
X1	C5	0.08979	. A
C1	C2	0.09000	. A
C1	H1	0.07247	. A
C2	C3	0.09166	. A
C2	C7	0.10299	. A
C3	C4	0.09091	. A
C3	C6	0.10034	. A
C4	C5	0.09009	. A
C4	C8	0.10095	. A
C5	H2	0.07216	. A
C6	C9	0.09989	. A
C6	N3	0.09877	. A
C6	H5	0.07318	. A
C7	C12	0.10140	. A
C7	H15	0.07322	. A
C7	H16	0.07320	. A
C8	H6	0.07294	. A
C8	H7	0.07317	. A
C8	H8	0.07306	. A
C9	N1	0.09584	. A
C9	H3	0.07263	. A
C9	H4	0.07278	. A
N1	N2	0.09145	. A
N1	C10	0.09496	. A
N2	N3	0.08407	. A
C10	C11	0.09993	. A
C10	N6	0.09795	. A
C10	H11	0.07314	. A
C11	N4	0.09562	. A
C11	H9	0.07296	. A
C11	H10	0.07337	. A
N4	N5	0.09099	. A
N5	N6	0.08334	. A
C12	H12	0.07317	. A
C12	H13	0.07272	. A
C12	H14	0.07298	. A
