data_tobacco_crystal_2_PM
_symmetry_space_group_name_H-M	'P1'
_cell_length_a	15.000000
_cell_length_b	15.000000
_cell_length_c	15.000000
_cell_angle_alpha	90.000000
_cell_angle_beta	90.000000
_cell_angle_gamma	90.000000
_symmetry_Int_Tables_number 1

loop_
_symmetry_equiv_pos_as_xyz
'x,y,z'

loop_
_atom_site_label
_atom_site_type_symbol
_atom_site_fract_x
_atom_site_fract_y
_atom_site_fract_z
X1	C	0.016244	-0.317000	-0.006200
C1	C	-0.065823	-0.278667	0.002533
C2	C	-0.070890	-0.189267	0.013400
C3	C	0.001510	-0.135267	0.016600
C4	C	0.081777	-0.174133	0.005333
C5	C	0.088977	-0.263067	-0.005933
C6	C	-0.009823	-0.036067	0.036667
F1	F	-0.152690	-0.152600	0.024333
C7	C	-0.152690	-0.330467	0.002667
H1	H	0.156177	-0.288267	-0.013667
H2	H	0.142644	-0.134067	0.006867
C8	C	0.059577	0.034200	0.011733
N1	N	0.001444	0.112467	0.011467
N2	N	-0.082823	0.084800	-0.014333
N3	N	-0.089556	0.001867	-0.007400
C9	C	0.025910	0.198867	-0.023733
H3	H	0.112910	0.041400	0.060867
H4	H	0.086844	0.024800	-0.055333
H5	H	-0.021090	-0.031400	0.109200
C10	C	0.105977	0.251533	0.009400
C11	C	0.082110	0.344933	-0.026133
N4	N	-0.017156	0.346267	-0.030533
N5	N	-0.044223	0.261133	0.003533
H6	H	-0.103490	0.238333	-0.020933
H7	H	-0.039823	0.397733	0.009000
H8	H	0.168710	0.227200	-0.018867
H9	H	0.106644	0.352667	-0.094667
H10	H	0.112244	0.250867	0.082333
H11	H	0.028577	0.192267	-0.096733
H12	H	-0.211023	-0.288000	0.013933
H13	H	-0.163690	-0.363133	-0.061733
H14	H	-0.153490	-0.379933	0.056333

loop_
_geom_bond_atom_site_label_1
_geom_bond_atom_site_label_2
_geom_bond_distance
_ccdc_geom_bond_type
X1	C1	0.09100	. A
X1	C5	0.09055	. A
C1	C2	0.09020	. A
C1	C7	0.10114	. A
C2	C3	0.09038	. A
C2	F1	0.09031	. A
C3	C4	0.08989	. A
C3	C6	0.10184	. A
C4	C5	0.08993	. A
C4	H2	0.07289	. A
C5	H1	0.07219	. A
C6	C8	0.10186	. A
C6	N3	0.09868	. A
C6	H5	0.07355	. A
C7	H12	0.07303	. A
C7	H13	0.07304	. A
C7	H14	0.07299	. A
C8	N1	0.09749	. A
C8	H3	0.07287	. A
C8	H4	0.07301	. A
N1	N2	0.09237	. A
N1	C9	0.09645	. A
N2	N3	0.08349	. A
C9	C10	0.10140	. A
C9	N5	0.09767	. A
C9	H11	0.07335	. A
C10	C11	0.10274	. A
C10	H8	0.07298	. A
C10	H10	0.07321	. A
C11	N4	0.09937	. A
C11	H9	0.07320	. A
N4	N5	0.09561	. A
N4	H7	0.06874	. A
N5	H6	0.06805	. A
