data_tobacco_crystal_2_PM
_symmetry_space_group_name_H-M	'P1'
_cell_length_a	15.000000
_cell_length_b	15.000000
_cell_length_c	15.000000
_cell_angle_alpha	90.000000
_cell_angle_beta	90.000000
_cell_angle_gamma	90.000000
_symmetry_Int_Tables_number 1

loop_
_symmetry_equiv_pos_as_xyz
'x,y,z'

loop_
_atom_site_label
_atom_site_type_symbol
_atom_site_fract_x
_atom_site_fract_y
_atom_site_fract_z
X1	C	0.014090	-0.125000	0.016424
C1	C	-0.068243	-0.086533	0.017357
C2	C	-0.078843	0.002933	0.015957
C3	C	-0.007843	0.056800	0.006424
C4	C	0.074690	0.020000	0.001690
C5	C	0.085890	-0.069867	0.011624
C6	C	-0.022710	0.150067	-0.003110
H1	H	-0.145576	0.031933	0.014957
C7	C	-0.150643	-0.132000	0.007757
Cl1	Cl	0.195757	-0.110267	0.010090
C8	C	0.147290	0.073533	-0.025110
N1	N	-0.222510	-0.154267	-0.010843
C9	C	-0.027710	0.230133	-0.006976
N2	N	0.206357	0.112533	-0.056243

loop_
_geom_bond_atom_site_label_1
_geom_bond_atom_site_label_2
_geom_bond_distance
_ccdc_geom_bond_type
X1	C1	0.09088	. A
X1	C5	0.09065	. A
C1	C2	0.09010	. A
C1	C7	0.09460	. A
C2	C3	0.08963	. A
C2	H1	0.07277	. A
C3	C4	0.09049	. A
C3	C6	0.09492	. A
C4	C5	0.09111	. A
C4	C8	0.09410	. A
C5	Cl1	0.11707	. A
C6	C9	0.08032	. A
C7	N1	0.07750	. A
C8	N2	0.07732	. A
