data_tobacco_crystal_2_PM
_symmetry_space_group_name_H-M	'P1'
_cell_length_a	15.000000
_cell_length_b	15.000000
_cell_length_c	15.000000
_cell_angle_alpha	90.000000
_cell_angle_beta	90.000000
_cell_angle_gamma	90.000000
_symmetry_Int_Tables_number 1

loop_
_symmetry_equiv_pos_as_xyz
'x,y,z'

loop_
_atom_site_label
_atom_site_type_symbol
_atom_site_fract_x
_atom_site_fract_y
_atom_site_fract_z
X1	C	-0.003592	-0.340174	0.000000
C1	C	-0.078926	-0.290441	0.000000
C2	C	-0.074726	-0.200641	0.000000
C3	C	0.005408	-0.159574	0.000000
C4	C	0.079941	-0.209908	0.000000
C5	C	0.076141	-0.298774	0.000000
C6	C	0.018674	-0.064508	0.000000
H1	H	-0.136726	-0.162841	0.000000
H2	H	-0.144459	-0.321641	0.000000
H3	H	0.140141	-0.331708	0.000000
F1	F	0.161808	-0.171574	0.000000
C7	C	-0.041792	0.000892	0.000000
C8	C	-0.017392	0.094559	0.000000
H4	H	-0.112592	-0.014574	0.000000
H5	H	0.088674	-0.046041	0.000000
C9	C	-0.083992	0.154692	0.000000
C10	C	-0.065859	0.242026	0.000000
C11	C	0.019141	0.272959	0.000000
C12	C	0.085541	0.212492	0.000000
C13	C	0.067808	0.124626	0.000000
N1	N	0.039741	0.362559	0.000000
H6	H	-0.122126	0.287626	0.000000
H7	H	-0.153526	0.133959	0.000000
H8	H	0.125008	0.080359	0.000000
H9	H	0.154808	0.233959	0.000000
N2	N	-0.027126	0.411692	0.000000

loop_
_geom_bond_atom_site_label_1
_geom_bond_atom_site_label_2
_geom_bond_distance
_ccdc_geom_bond_type
X1	C1	0.09027	. A
X1	C5	0.08984	. A
C1	C2	0.08990	. A
C1	H2	0.07258	. A
C2	C3	0.09004	. A
C2	H1	0.07261	. A
C3	C4	0.08994	. A
C3	C6	0.09599	. A
C4	C5	0.08895	. A
C4	F1	0.09040	. A
C5	H3	0.07198	. A
C6	C7	0.08907	. A
C6	H5	0.07239	. A
C7	C8	0.09679	. A
C7	H4	0.07247	. A
C8	C9	0.08973	. A
C8	C13	0.09035	. A
C9	C10	0.08920	. A
C9	H7	0.07256	. A
C10	C11	0.09045	. A
C10	H6	0.07242	. A
C11	C12	0.08981	. A
C11	N1	0.09194	. A
C12	C13	0.08964	. A
C12	H9	0.07252	. A
C13	H8	0.07233	. A
N1	N2	0.08298	. A
