data_tobacco_crystal_2_PM
_symmetry_space_group_name_H-M	'P1'
_cell_length_a	15.000000
_cell_length_b	15.000000
_cell_length_c	15.000000
_cell_angle_alpha	90.000000
_cell_angle_beta	90.000000
_cell_angle_gamma	90.000000
_symmetry_Int_Tables_number 1

loop_
_symmetry_equiv_pos_as_xyz
'x,y,z'

loop_
_atom_site_label
_atom_site_type_symbol
_atom_site_fract_x
_atom_site_fract_y
_atom_site_fract_z
X1	C	0.025713	-0.395071	0.002933
C1	C	-0.053420	-0.350804	-0.005733
C2	C	-0.051620	-0.261471	-0.017067
C3	C	0.025380	-0.216071	-0.019067
C4	C	0.103180	-0.259004	-0.010000
C5	C	0.103113	-0.348004	0.001467
C6	C	0.020780	-0.122471	-0.022467
H1	H	-0.113887	-0.224337	-0.022267
C7	C	-0.145420	-0.392071	-0.002467
H2	H	0.167980	-0.378004	0.011467
H3	H	0.165513	-0.222071	-0.009667
C8	C	0.003913	-0.046004	-0.008000
C9	C	-0.023620	0.039596	0.026333
C10	C	0.046646	0.109729	0.017000
N1	N	-0.008754	0.182929	-0.009133
N2	N	-0.090554	0.155529	-0.038867
N3	N	-0.098087	0.072929	-0.028000
C11	C	0.012313	0.271796	-0.005000
H4	H	0.080113	0.122396	0.080600
H5	H	0.095713	0.096263	-0.035400
H6	H	-0.046620	0.033263	0.095400
H7	H	-0.196487	-0.346004	-0.027667
H8	H	-0.163687	-0.407871	0.066400
H9	H	-0.150354	-0.451337	-0.044400
C12	C	-0.054087	0.332663	-0.005867
C13	C	-0.036687	0.420196	-0.001000
C14	C	0.048180	0.448996	0.003667
C15	C	0.115646	0.389129	0.005000
C16	C	0.097446	0.301129	0.001400
H10	H	-0.092420	0.466329	-0.000733
H11	H	-0.123420	0.311863	-0.008933
H12	H	0.152980	0.254596	0.001667
H13	H	0.184513	0.411263	0.008400

loop_
_geom_bond_atom_site_label_1
_geom_bond_atom_site_label_2
_geom_bond_distance
_ccdc_geom_bond_type
X1	C1	0.09109	. A
X1	C5	0.09060	. A
C1	C2	0.09007	. A
C1	C7	0.10088	. A
C2	C3	0.08941	. A
C2	H1	0.07268	. A
C3	C4	0.08932	. A
C3	C6	0.09377	. A
C4	C5	0.08974	. A
C4	H3	0.07245	. A
C5	H2	0.07216	. A
C6	C8	0.07963	. A
C7	H7	0.07325	. A
C7	H8	0.07298	. A
C7	H9	0.07277	. A
C8	C9	0.09625	. A
C9	C10	0.09972	. A
C9	N3	0.09802	. A
C9	H6	0.07307	. A
C10	N1	0.09545	. A
C10	H4	0.07298	. A
C10	H5	0.07304	. A
N1	N2	0.09125	. A
N1	C11	0.09142	. A
N2	N3	0.08365	. A
C11	C12	0.09008	. A
C11	C16	0.09027	. A
C12	C13	0.08938	. A
C12	H11	0.07245	. A
C13	C14	0.08974	. A
C13	H10	0.07235	. A
C14	C15	0.09021	. A
C15	C16	0.08993	. A
C15	H13	0.07242	. A
C16	H12	0.07245	. A
