data_tobacco_crystal_2_PM
_symmetry_space_group_name_H-M	'P1'
_cell_length_a	15.000000
_cell_length_b	15.000000
_cell_length_c	15.000000
_cell_angle_alpha	90.000000
_cell_angle_beta	90.000000
_cell_angle_gamma	90.000000
_symmetry_Int_Tables_number 1

loop_
_symmetry_equiv_pos_as_xyz
'x,y,z'

loop_
_atom_site_label
_atom_site_type_symbol
_atom_site_fract_x
_atom_site_fract_y
_atom_site_fract_z
X1	C	-0.022170	-0.368690	-0.024702
C1	C	-0.101837	-0.325490	-0.024968
C2	C	-0.106903	-0.236090	-0.024902
C3	C	-0.031970	-0.185890	-0.023635
C4	C	0.045963	-0.230623	-0.022702
C5	C	0.054497	-0.319957	-0.022968
C6	C	-0.030703	-0.087890	-0.015902
H1	H	-0.172903	-0.206490	-0.023968
H2	H	-0.164637	-0.361957	-0.024235
C7	C	0.151563	-0.349490	-0.019768
H3	H	0.107697	-0.193757	-0.019302
C8	C	0.177630	-0.404423	0.060965
H4	H	0.186763	-0.361290	0.119232
H5	H	0.128430	-0.455090	0.077965
H6	H	0.241430	-0.437290	0.047765
H7	H	0.196497	-0.291357	-0.017968
H8	H	0.169430	-0.381757	-0.082702
C9	C	-0.105570	-0.040423	0.001498
C10	C	-0.101437	0.047110	0.019565
C11	C	-0.022237	0.089377	0.019498
C12	C	0.052163	0.044777	-0.001502
C13	C	0.047297	-0.042023	-0.020302
C14	C	-0.012237	0.182377	0.038365
H9	H	-0.162970	0.082310	0.034698
H10	H	-0.171170	-0.070690	0.003698
H11	H	0.110963	-0.071623	-0.037035
H12	H	0.116697	0.077643	-0.003902
C15	C	-0.069503	0.241110	0.004098
C16	C	-0.054303	0.335310	0.001898
H13	H	-0.129503	0.218043	-0.029435
H14	H	0.048897	0.202843	0.071365
C17	C	-0.125837	0.389243	-0.000435
C18	C	-0.114703	0.477577	-0.006635
C19	C	-0.031970	0.512443	-0.010968
C20	C	0.040097	0.458377	-0.010635
C21	C	0.028630	0.370110	-0.004768
H15	H	-0.173903	0.519577	-0.008368
H16	H	-0.192970	0.361710	0.002632
H17	H	0.087497	0.327377	-0.006168
H18	H	0.107297	0.484977	-0.015368

loop_
_geom_bond_atom_site_label_1
_geom_bond_atom_site_label_2
_geom_bond_distance
_ccdc_geom_bond_type
X1	C1	0.09063	. A
X1	C5	0.09086	. A
X1	C19	0.12006	. A
C1	C2	0.08954	. A
C1	H2	0.07262	. A
C2	C3	0.09020	. A
C2	H1	0.07234	. A
C3	C4	0.08986	. A
C3	C6	0.09831	. A
C4	C5	0.08974	. A
C4	H3	0.07198	. A
C5	C7	0.10151	. A
C6	C9	0.09034	. A
C6	C13	0.09059	. A
C7	C8	0.10107	. A
C7	H7	0.07350	. A
C7	H8	0.07294	. A
C8	H4	0.07307	. A
C8	H5	0.07264	. A
C8	H6	0.07297	. A
C9	C10	0.08947	. A
C9	H10	0.07228	. A
C10	C11	0.08977	. A
C10	H9	0.07249	. A
C11	C12	0.08925	. A
C11	C14	0.09542	. A
C12	C13	0.08895	. A
C12	H12	0.07246	. A
C13	H11	0.07218	. A
C14	C15	0.08890	. A
C14	H14	0.07242	. A
C15	C16	0.09544	. A
C15	H13	0.07250	. A
C16	C17	0.08962	. A
C16	C21	0.09019	. A
C17	C18	0.08925	. A
C17	H16	0.07262	. A
C18	C19	0.08988	. A
C18	H15	0.07261	. A
C19	C20	0.09009	. A
C20	C21	0.08920	. A
C20	H18	0.07243	. A
C21	H17	0.07276	. A
