data_tobacco_crystal_2_PM
_symmetry_space_group_name_H-M	'P1'
_cell_length_a	15.000000
_cell_length_b	15.000000
_cell_length_c	15.000000
_cell_angle_alpha	90.000000
_cell_angle_beta	90.000000
_cell_angle_gamma	90.000000
_symmetry_Int_Tables_number 1

loop_
_symmetry_equiv_pos_as_xyz
'x,y,z'

loop_
_atom_site_label
_atom_site_type_symbol
_atom_site_fract_x
_atom_site_fract_y
_atom_site_fract_z
X1	C	0.034937	-0.380792	-0.018113
C1	C	-0.050596	-0.353725	-0.015180
C2	C	-0.073863	-0.266992	-0.006780
C3	C	-0.009129	-0.202792	-0.000380
C4	C	0.076737	-0.230792	-0.008046
C5	C	0.098871	-0.317659	-0.016646
C6	C	-0.023196	-0.103792	0.024220
Br1	Br	-0.198996	-0.250792	0.000354
H1	H	-0.103263	-0.403925	-0.017446
H2	H	0.169204	-0.333925	-0.020313
H3	H	0.130537	-0.182059	-0.004113
O1	O	0.032271	-0.035592	-0.019780
C7	C	-0.101063	0.034875	0.022354
C8	C	-0.115729	-0.063925	0.019020
C9	C	0.031004	0.139075	-0.010913
H4	H	-0.158796	-0.084925	0.073820
H5	H	-0.130796	0.066075	0.081220
H6	H	-0.133929	0.061941	-0.036913
H7	H	-0.147263	-0.079059	-0.045180
H8	H	0.023671	0.043208	0.090554
C10	C	0.000137	0.046541	0.021087
H9	H	-0.002729	-0.101592	0.094754
C11	C	-0.030063	0.202075	-0.032513
C12	C	-0.008129	0.288275	-0.041713
C13	C	0.076137	0.316608	-0.029046
C14	C	0.139071	0.253941	-0.013780
C15	C	0.117004	0.166608	-0.004780
N1	N	0.093071	0.407275	-0.029846
H10	H	-0.060729	0.336475	-0.054913
H11	H	-0.100663	0.188475	-0.038313
H12	H	0.169004	0.119075	0.012487
H13	H	0.207937	0.274475	-0.004580
N2	N	0.049337	0.447341	0.029420

loop_
_geom_bond_atom_site_label_1
_geom_bond_atom_site_label_2
_geom_bond_distance
_ccdc_geom_bond_type
X1	C1	0.08976	. A
X1	C5	0.08986	. A
C1	C2	0.09019	. A
C1	H1	0.07279	. A
C2	C3	0.09139	. A
C2	Br1	0.12638	. A
C3	C4	0.09064	. A
C3	C6	0.10298	. A
C4	C5	0.09005	. A
C4	H3	0.07270	. A
C5	H2	0.07228	. A
C6	O1	0.09830	. A
C6	C8	0.10089	. A
C6	H9	0.07348	. A
O1	C10	0.09720	. A
C7	C8	0.09994	. A
C7	H5	0.07296	. A
C7	H6	0.07298	. A
C7	C10	0.10188	. A
C8	H4	0.07279	. A
C8	H7	0.07311	. A
C9	C10	0.10266	. A
C9	C11	0.09036	. A
C9	C15	0.09051	. A
H8	C10	0.07342	. A
C11	C12	0.08942	. A
C11	H11	0.07213	. A
C12	C13	0.08980	. A
C12	H10	0.07256	. A
C13	C14	0.09012	. A
C13	N1	0.09224	. A
C14	C15	0.09053	. A
C14	H13	0.07245	. A
C15	H12	0.07254	. A
N1	N2	0.08385	. A
