data_tobacco_crystal_2_PM
_symmetry_space_group_name_H-M	'P1'
_cell_length_a	15.000000
_cell_length_b	15.000000
_cell_length_c	15.000000
_cell_angle_alpha	90.000000
_cell_angle_beta	90.000000
_cell_angle_gamma	90.000000
_symmetry_Int_Tables_number 1

loop_
_symmetry_equiv_pos_as_xyz
'x,y,z'

loop_
_atom_site_label
_atom_site_type_symbol
_atom_site_fract_x
_atom_site_fract_y
_atom_site_fract_z
X1	C	-0.015530	-0.184152	-0.001483
H1	H	0.116137	-0.295219	0.006784
C1	C	-0.092663	-0.137019	-0.008883
C2	C	-0.090863	-0.046419	-0.009283
C3	C	-0.012930	0.000848	-0.003216
C4	C	0.063603	-0.047752	0.002651
C5	C	0.061470	-0.137819	0.004784
C6	C	-0.016330	0.103248	-0.008416
Cl1	Cl	-0.194197	0.009048	-0.023016
N1	N	-0.176730	-0.180686	-0.018616
H2	H	0.125137	-0.171752	0.009784
C7	C	0.150670	-0.008486	0.001184
C8	C	0.061737	0.165914	0.007051
N2	N	0.011337	0.245181	0.028117
N3	N	-0.068997	0.224248	0.064651
N4	N	-0.080263	0.141314	0.057717
H3	H	0.104937	0.175248	-0.050816
H4	H	0.100670	0.149581	0.066584
H5	H	-0.042063	0.118581	-0.075549
H6	H	-0.226930	-0.145419	-0.047283
N5	N	0.221803	0.021514	-0.002749

loop_
_geom_bond_atom_site_label_1
_geom_bond_atom_site_label_2
_geom_bond_distance
_ccdc_geom_bond_type
X1	C1	0.09070	. A
X1	C5	0.09008	. A
C1	C2	0.09062	. A
C1	N1	0.09523	. A
C2	C3	0.09135	. A
C2	Cl1	0.11808	. A
C3	C4	0.09085	. A
C3	C6	0.10259	. A
C4	C5	0.09012	. A
C4	C7	0.09552	. A
C5	H2	0.07232	. A
C6	C8	0.10130	. A
C6	N4	0.09955	. A
C6	H5	0.07351	. A
N1	H6	0.06772	. A
C7	N5	0.07730	. A
C8	N2	0.09627	. A
C8	H3	0.07281	. A
C8	H4	0.07298	. A
N2	N3	0.09070	. A
N3	N4	0.08398	. A
