data_tobacco_crystal_2_PM
_symmetry_space_group_name_H-M	'P1'
_cell_length_a	15.000000
_cell_length_b	15.000000
_cell_length_c	15.000000
_cell_angle_alpha	90.000000
_cell_angle_beta	90.000000
_cell_angle_gamma	90.000000
_symmetry_Int_Tables_number 1

loop_
_symmetry_equiv_pos_as_xyz
'x,y,z'

loop_
_atom_site_label
_atom_site_type_symbol
_atom_site_fract_x
_atom_site_fract_y
_atom_site_fract_z
X1	C	-0.046443	-0.457088	0.012450
C1	C	-0.124377	-0.413155	0.002450
C2	C	-0.124910	-0.324088	-0.008550
C3	C	-0.047843	-0.276888	-0.010283
C4	C	0.028623	-0.320622	0.009250
C5	C	0.030223	-0.410022	0.019450
C6	C	-0.046577	-0.180755	-0.043083
H1	H	-0.188777	-0.291955	-0.021150
H2	H	-0.187377	-0.449155	-0.001750
O1	O	0.111423	-0.452955	0.030917
H3	H	0.090957	-0.283888	0.011450
C7	C	0.022157	-0.113422	-0.010483
N1	N	-0.029910	-0.031488	-0.013017
N2	N	-0.119777	-0.052888	-0.015950
N3	N	-0.131510	-0.134422	-0.027217
C8	C	-0.008843	0.046578	0.043317
H4	H	0.044823	-0.125822	0.057583
H5	H	0.079023	-0.108688	-0.056017
H6	H	-0.040043	-0.186222	-0.115883
H7	H	0.161223	-0.411222	0.034117
C9	C	0.073090	0.104445	0.021650
C10	C	0.037623	0.184378	-0.033017
N4	N	-0.054043	0.156045	-0.052283
N5	N	-0.081710	0.110178	0.027850
C11	C	0.044290	0.282445	0.000317
H8	H	-0.136043	0.070712	0.014717
H9	H	-0.094110	0.207912	-0.069883
H10	H	0.122690	0.066778	-0.016617
H11	H	0.073023	0.183978	-0.097083
H12	H	0.104357	0.127712	0.083517
H13	H	-0.007510	0.022778	0.112317
C12	C	-0.029043	0.332712	0.018717
C13	C	-0.025377	0.421912	0.025383
C14	C	0.053357	0.464312	0.016650
C15	C	0.128357	0.415445	0.006783
C16	C	0.123423	0.326445	-0.000950
H14	H	-0.087177	0.459178	0.034117
H15	H	-0.094977	0.302912	0.023117
H16	H	0.185023	0.289378	-0.014017
H17	H	0.192690	0.448512	0.001117

loop_
_geom_bond_atom_site_label_1
_geom_bond_atom_site_label_2
_geom_bond_distance
_ccdc_geom_bond_type
X1	C1	0.09002	. A
X1	C5	0.09023	. A
X1	C13	0.12350	. A
X1	H14	0.09560	. A
C1	C2	0.08974	. A
C1	H2	0.07268	. A
C2	C3	0.09039	. A
C2	H1	0.07260	. A
C3	C4	0.09023	. A
C3	C6	0.10158	. A
C4	C5	0.08999	. A
C4	H3	0.07239	. A
C5	O1	0.09256	. A
C6	C7	0.10159	. A
C6	N3	0.09804	. A
C6	H6	0.07330	. A
O1	H7	0.06505	. A
O1	C14	0.10208	. A
C7	N1	0.09711	. A
C7	H4	0.07281	. A
C7	H5	0.07300	. A
N1	N2	0.09243	. A
N1	C8	0.09855	. A
N2	N3	0.08314	. A
C8	C9	0.10262	. A
C8	N5	0.09795	. A
C8	H13	0.07300	. A
C9	C10	0.10313	. A
C9	H10	0.07310	. A
C9	H12	0.07312	. A
C10	N4	0.09786	. A
C10	C11	0.10379	. A
C10	H11	0.07320	. A
N4	N5	0.09639	. A
N4	H9	0.06786	. A
N5	H8	0.06843	. A
C11	C12	0.09079	. A
C11	C16	0.09055	. A
C12	C13	0.08952	. A
C12	H15	0.07249	. A
C13	C14	0.08985	. A
C13	H14	0.07269	. A
C14	C15	0.09006	. A
C15	C16	0.08947	. A
C15	H17	0.07256	. A
C16	H16	0.07307	. A
