data_tobacco_crystal_2_PM
_symmetry_space_group_name_H-M	'P1'
_cell_length_a	15.000000
_cell_length_b	15.000000
_cell_length_c	15.000000
_cell_angle_alpha	90.000000
_cell_angle_beta	90.000000
_cell_angle_gamma	90.000000
_symmetry_Int_Tables_number 1

loop_
_symmetry_equiv_pos_as_xyz
'x,y,z'

loop_
_atom_site_label
_atom_site_type_symbol
_atom_site_fract_x
_atom_site_fract_y
_atom_site_fract_z
X1	C	-0.035746	-0.318473	-0.029671
C1	C	-0.107880	-0.267406	-0.045138
C2	C	-0.103346	-0.178473	-0.035404
C3	C	-0.027680	-0.136273	-0.008538
C4	C	0.045587	-0.188273	0.003996
C5	C	0.041187	-0.277873	-0.007404
C6	C	-0.031413	-0.036806	0.017062
H1	H	-0.164813	-0.141606	-0.046671
H2	H	-0.171546	-0.297673	-0.063138
F1	F	0.114720	-0.327673	0.008529
N1	N	0.128920	-0.152406	0.032929
C7	C	0.030320	0.037394	-0.019071
C8	C	-0.010280	0.116860	0.030662
N2	N	-0.107613	0.100260	0.025329
N3	N	-0.118680	0.006994	0.002929
C9	C	0.009454	0.214927	0.013396
H3	H	-0.165680	-0.021740	0.043129
H4	H	-0.133213	0.139394	-0.025071
H5	H	0.100187	0.027727	-0.000271
H6	H	0.008520	0.107060	0.100929
H7	H	0.026054	0.044260	-0.091671
H8	H	-0.021946	-0.038873	0.090062
H9	H	0.174120	-0.197473	0.054596
H10	H	0.127720	-0.097140	0.071862
C10	C	0.101587	0.248460	-0.005804
N4	N	0.075387	0.333927	-0.042938
N5	N	-0.007680	0.329327	-0.080871
N6	N	-0.041880	0.254727	-0.061538
H11	H	0.144187	0.255460	0.052796
H12	H	0.135720	0.211327	-0.058538
H13	H	-0.014280	0.250060	0.073529

loop_
_geom_bond_atom_site_label_1
_geom_bond_atom_site_label_2
_geom_bond_distance
_ccdc_geom_bond_type
X1	C1	0.08972	. A
X1	C5	0.08979	. A
C1	C2	0.08958	. A
C1	H2	0.07276	. A
C2	C3	0.09071	. A
C2	H1	0.07256	. A
C3	C4	0.09071	. A
C3	C6	0.10278	. A
C4	C5	0.09043	. A
C4	N1	0.09523	. A
C5	F1	0.09023	. A
C6	C7	0.10306	. A
C6	N3	0.09866	. A
C6	H8	0.07364	. A
N1	H9	0.06741	. A
N1	H10	0.06761	. A
C7	C8	0.10216	. A
C7	H5	0.07299	. A
C7	H7	0.07305	. A
C8	N2	0.09888	. A
C8	C9	0.10151	. A
C8	H6	0.07340	. A
N2	N3	0.09656	. A
N2	H4	0.06875	. A
N3	H3	0.06820	. A
C9	C10	0.09991	. A
C9	N6	0.09917	. A
C9	H13	0.07358	. A
C10	N4	0.09680	. A
C10	H11	0.07279	. A
C10	H12	0.07297	. A
N4	N5	0.09143	. A
N5	N6	0.08431	. A
