data_tobacco_crystal_2_PM
_symmetry_space_group_name_H-M	'P1'
_cell_length_a	15.000000
_cell_length_b	15.000000
_cell_length_c	15.000000
_cell_angle_alpha	90.000000
_cell_angle_beta	90.000000
_cell_angle_gamma	90.000000
_symmetry_Int_Tables_number 1

loop_
_symmetry_equiv_pos_as_xyz
'x,y,z'

loop_
_atom_site_label
_atom_site_type_symbol
_atom_site_fract_x
_atom_site_fract_y
_atom_site_fract_z
X1	C	-0.009871	-0.319525	-0.000174
C1	C	-0.088938	-0.276925	0.004892
C2	C	-0.094938	-0.187258	0.012759
C3	C	-0.020338	-0.133325	0.015092
C4	C	0.058729	-0.178058	0.009692
C5	C	0.064529	-0.268658	0.002292
C6	C	-0.028271	-0.028858	0.024226
C7	C	-0.183404	-0.152591	0.019292
H1	H	-0.152004	-0.315191	0.003559
C8	C	0.150662	-0.307725	-0.002508
H2	H	0.120262	-0.139458	0.011692
C9	C	0.051662	0.037942	0.011692
C10	C	0.014796	0.118475	-0.041774
N1	N	-0.081671	0.100809	-0.044841
N2	N	-0.092871	0.006675	-0.040641
C11	C	0.023996	0.220342	-0.025508
H3	H	-0.157271	-0.006991	-0.021974
H4	H	-0.111871	0.133542	0.007492
H5	H	0.080529	0.057075	0.075959
H6	H	0.041062	0.108875	-0.109508
H7	H	0.104129	0.006209	-0.028308
H8	H	-0.053604	-0.016991	0.092092
C12	C	0.106729	0.274209	-0.007174
N3	N	0.061796	0.356742	0.019092
N4	N	-0.020738	0.339209	0.054292
N5	N	-0.038004	0.257275	0.043226
H9	H	0.145529	0.252275	0.050492
H10	H	0.149729	0.285342	-0.064974
H11	H	-0.001738	0.248075	-0.088774
N6	N	0.215862	-0.348991	-0.006108
N7	N	-0.254471	-0.122525	0.024426

loop_
_geom_bond_atom_site_label_1
_geom_bond_atom_site_label_2
_geom_bond_distance
_ccdc_geom_bond_type
X1	C1	0.08996	. A
X1	C5	0.09016	. A
C1	C2	0.09021	. A
C1	H1	0.07378	. A
C2	C3	0.09208	. A
C2	C7	0.09524	. A
C3	C4	0.09100	. A
C3	C6	0.10516	. A
C4	C5	0.09109	. A
C4	H2	0.07267	. A
C5	C8	0.09470	. A
C6	C9	0.10492	. A
C6	N2	0.09820	. A
C6	H8	0.07341	. A
C7	N7	0.07734	. A
C8	N6	0.07725	. A
C9	C10	0.10346	. A
C9	H5	0.07300	. A
C9	H7	0.07321	. A
C10	N1	0.09812	. A
C10	C11	0.10357	. A
C10	H6	0.07328	. A
N1	N2	0.09489	. A
N1	H4	0.06872	. A
N2	H3	0.06843	. A
C11	C12	0.10041	. A
C11	N5	0.09966	. A
C11	H11	0.07372	. A
C12	N3	0.09757	. A
C12	H9	0.07288	. A
C12	H10	0.07290	. A
N3	N4	0.09142	. A
N4	N5	0.08446	. A
