data_tobacco_crystal_2_PM
_symmetry_space_group_name_H-M	'P1'
_cell_length_a	15.000000
_cell_length_b	15.000000
_cell_length_c	15.000000
_cell_angle_alpha	90.000000
_cell_angle_beta	90.000000
_cell_angle_gamma	90.000000
_symmetry_Int_Tables_number 1

loop_
_symmetry_equiv_pos_as_xyz
'x,y,z'

loop_
_atom_site_label
_atom_site_type_symbol
_atom_site_fract_x
_atom_site_fract_y
_atom_site_fract_z
X1	C	0.081683	-0.217184	0.020533
C1	C	0.001683	-0.181117	0.001200
C2	C	-0.010051	-0.092384	-0.007867
C3	C	0.059749	-0.035184	0.004067
C4	C	0.139349	-0.071584	0.026133
C5	C	0.152416	-0.161784	0.032800
C6	C	0.049549	0.065683	-0.014867
C7	C	-0.169184	-0.085051	0.009133
F1	F	-0.069317	-0.234117	-0.016133
Br1	Br	0.269349	-0.202517	0.054400
H1	H	0.196416	-0.027851	0.034333
O1	O	0.098749	0.131949	0.037000
C8	C	-0.033851	0.202283	-0.005533
C9	C	-0.044784	0.103416	-0.012600
H2	H	-0.081384	0.080349	0.046333
H3	H	-0.068984	0.226216	0.054000
H4	H	-0.061984	0.236816	-0.063333
H5	H	-0.081917	0.087216	-0.073067
H6	H	0.093083	0.216816	-0.067667
C10	C	0.066483	0.215483	0.000667
H7	H	0.076283	0.072216	-0.082667
H8	H	-0.155584	-0.115251	0.074133
H9	H	-0.208584	-0.129851	-0.032600
H10	H	-0.208317	-0.024317	0.020133
O2	O	-0.090851	-0.060251	-0.038533

loop_
_geom_bond_atom_site_label_1
_geom_bond_atom_site_label_2
_geom_bond_distance
_ccdc_geom_bond_type
X1	C1	0.08986	. A
X1	C5	0.09068	. A
C1	C2	0.08996	. A
C1	F1	0.09028	. A
C2	C3	0.09103	. A
C2	O2	0.09220	. A
C3	C4	0.09027	. A
C3	C6	0.10313	. A
C4	C5	0.09139	. A
C4	H1	0.07236	. A
C5	Br1	0.12569	. A
C6	O1	0.09748	. A
C6	C9	0.10163	. A
C6	H7	0.07317	. A
C7	H8	0.07295	. A
C7	H9	0.07281	. A
C7	H10	0.07308	. A
C7	O2	0.09499	. A
O1	C10	0.09664	. A
C8	C9	0.09972	. A
C8	H3	0.07315	. A
C8	H4	0.07297	. A
C8	C10	0.10139	. A
C9	H2	0.07311	. A
C9	H5	0.07278	. A
H6	C10	0.07334	. A
