data_tobacco_crystal_2_PM
_symmetry_space_group_name_H-M	'P1'
_cell_length_a	15.000000
_cell_length_b	15.000000
_cell_length_c	15.000000
_cell_angle_alpha	90.000000
_cell_angle_beta	90.000000
_cell_angle_gamma	90.000000
_symmetry_Int_Tables_number 1

loop_
_symmetry_equiv_pos_as_xyz
'x,y,z'

loop_
_atom_site_label
_atom_site_type_symbol
_atom_site_fract_x
_atom_site_fract_y
_atom_site_fract_z
X1	C	-0.039187	-0.232697	0.000542
C1	C	-0.118720	-0.191297	0.013809
C2	C	-0.126720	-0.101697	0.015009
C3	C	-0.055187	-0.049497	-0.000525
C4	C	0.022080	-0.092697	-0.017725
C5	C	0.035080	-0.182163	-0.013858
C6	C	-0.055187	0.049903	0.002142
H1	H	-0.191787	-0.072697	0.028275
H2	H	-0.179187	-0.230030	0.025342
C7	C	0.134746	-0.201563	-0.026325
H3	H	0.079546	-0.052097	-0.035191
C8	C	-0.125054	0.099037	-0.028458
C9	C	-0.122854	0.188770	-0.029725
C10	C	-0.050120	0.233770	-0.000791
C11	C	0.019013	0.185303	0.030609
C12	C	0.016680	0.096037	0.034142
C13	C	-0.038054	0.329837	-0.004058
H4	H	-0.180120	0.224970	-0.055458
H5	H	-0.184320	0.066237	-0.054125
O1	O	0.090413	0.052703	0.070542
H6	H	0.078080	0.219637	0.054209
C14	C	-0.100720	0.392903	0.003409
H7	H	-0.171054	0.379303	0.011342
H8	H	0.031280	0.351303	-0.010191
C15	C	0.181746	-0.289297	-0.009325
H9	H	0.155946	-0.342563	-0.051525
H10	H	0.179480	-0.308030	0.061142
H11	H	0.252813	-0.281230	-0.024925
H12	H	0.169613	-0.155363	0.019342
H13	H	0.153413	-0.180030	-0.093791
H14	H	0.138346	0.093237	0.086142

loop_
_geom_bond_atom_site_label_1
_geom_bond_atom_site_label_2
_geom_bond_distance
_ccdc_geom_bond_type
X1	C1	0.09064	. A
X1	C5	0.09098	. A
C1	C2	0.08996	. A
C1	H2	0.07273	. A
C2	C3	0.08991	. A
C2	H1	0.07246	. A
C3	C4	0.09018	. A
C3	C6	0.09944	. A
C4	C5	0.09049	. A
C4	H3	0.07250	. A
C5	C7	0.10230	. A
C6	C8	0.09073	. A
C6	C12	0.09120	. A
C7	C15	0.10097	. A
C7	H12	0.07373	. A
C7	H13	0.07324	. A
C8	C9	0.08977	. A
C8	H5	0.07244	. A
C9	C10	0.09029	. A
C9	H4	0.07247	. A
C10	C11	0.09008	. A
C10	C13	0.09688	. A
C11	C12	0.08937	. A
C11	H6	0.07228	. A
C12	O1	0.09295	. A
C13	C14	0.08922	. A
C13	H8	0.07284	. A
O1	H14	0.06468	. A
C14	H7	0.07207	. A
C15	H9	0.07269	. A
C15	H10	0.07295	. A
C15	H11	0.07320	. A
