data_tobacco_crystal_2_PM
_symmetry_space_group_name_H-M	'P1'
_cell_length_a	15.000000
_cell_length_b	15.000000
_cell_length_c	15.000000
_cell_angle_alpha	90.000000
_cell_angle_beta	90.000000
_cell_angle_gamma	90.000000
_symmetry_Int_Tables_number 1

loop_
_symmetry_equiv_pos_as_xyz
'x,y,z'

loop_
_atom_site_label
_atom_site_type_symbol
_atom_site_fract_x
_atom_site_fract_y
_atom_site_fract_z
X1	C	-0.001234	-0.477680	0.001926
C1	C	-0.075368	-0.425480	0.002726
C2	C	-0.069101	-0.335480	0.003260
C3	C	0.010499	-0.293080	0.003460
C4	C	0.083766	-0.346680	0.002460
C5	C	0.078632	-0.436480	0.001860
N1	N	0.027032	-0.202147	0.004593
H1	H	-0.130768	-0.297014	0.003660
H2	H	-0.141034	-0.456814	0.002593
H3	H	0.141432	-0.472280	0.001060
H4	H	0.149032	-0.315747	0.002460
N2	N	-0.033168	-0.144147	0.007993
C6	C	0.000166	-0.057414	0.012260
C7	C	-0.050034	0.016986	0.017393
C8	C	-0.017168	0.107653	0.020526
H5	H	-0.122301	0.009386	0.016660
H6	H	0.072366	-0.050814	0.011660
C9	C	-0.001768	0.186653	0.015260
C10	C	0.000566	0.281653	-0.012807
C11	C	0.080632	0.341853	0.005260
C12	C	0.043832	0.432053	-0.027274
N3	N	-0.054768	0.424120	-0.015607
N4	N	-0.069301	0.337786	0.026726
H7	H	-0.130834	0.312720	0.011793
H8	H	-0.076634	0.477186	0.022060
H9	H	0.099832	0.343920	0.075860
H10	H	0.056966	0.438386	-0.099007
H11	H	0.139099	0.321386	-0.033474
H12	H	-0.010368	0.279520	-0.085340

loop_
_geom_bond_atom_site_label_1
_geom_bond_atom_site_label_2
_geom_bond_distance
_ccdc_geom_bond_type
X1	C1	0.09067	. A
X1	C5	0.08987	. A
X1	C12	0.10503	. A
X1	N3	0.11321	. A
X1	H8	0.09015	. A
C1	C2	0.09022	. A
C1	H2	0.07276	. A
C1	H8	0.09924	. A
C2	C3	0.09019	. A
C2	H1	0.07268	. A
C3	C4	0.09079	. A
C3	N1	0.09243	. A
C4	C5	0.08995	. A
C4	H4	0.07223	. A
C5	H3	0.07229	. A
N1	N2	0.08366	. A
N2	C6	0.09302	. A
C6	C7	0.08990	. A
C6	H6	0.07250	. A
C7	C8	0.09649	. A
C7	H5	0.07267	. A
C8	C9	0.08066	. A
C9	C10	0.09909	. A
C10	C11	0.10179	. A
C10	N4	0.09796	. A
C10	H12	0.07338	. A
C11	C12	0.10271	. A
C11	H9	0.07319	. A
C11	H11	0.07306	. A
C12	N3	0.09960	. A
C12	H10	0.07320	. A
N3	N4	0.09725	. A
N3	H8	0.06865	. A
N4	H7	0.06810	. A
