data_tobacco_crystal_2_PM
_symmetry_space_group_name_H-M	'P1'
_cell_length_a	15.000000
_cell_length_b	15.000000
_cell_length_c	15.000000
_cell_angle_alpha	90.000000
_cell_angle_beta	90.000000
_cell_angle_gamma	90.000000
_symmetry_Int_Tables_number 1

loop_
_symmetry_equiv_pos_as_xyz
'x,y,z'

loop_
_atom_site_label
_atom_site_type_symbol
_atom_site_fract_x
_atom_site_fract_y
_atom_site_fract_z
X1	C	0.015722	-0.166586	-0.011800
C1	C	-0.060944	-0.123986	-0.033867
C2	C	-0.066678	-0.033719	-0.022533
C3	C	0.010456	0.013614	-0.007800
C4	C	0.089922	-0.028053	0.002600
C5	C	0.089522	-0.118386	0.006333
C6	C	0.004456	0.109481	-0.006333
C7	C	-0.156744	0.016881	-0.020000
Br1	Br	-0.154811	-0.189119	-0.090200
H1	H	0.151389	-0.151919	0.023533
C8	C	0.183122	0.013681	0.013267
C9	C	-0.004211	0.189147	-0.006667
C10	C	0.196989	0.114014	0.020267
H2	H	0.176256	0.148281	-0.040733
H3	H	0.162122	0.141814	0.077933
H4	H	0.268056	0.128614	0.029067
H5	H	0.215056	-0.015986	0.072067
H6	H	0.222589	-0.008186	-0.044667
C11	C	-0.238878	-0.031186	0.017133
H7	H	-0.221278	-0.082119	0.066467
H8	H	-0.283344	0.016281	0.050200
H9	H	-0.277944	-0.061386	-0.036400
H10	H	-0.149478	0.072347	0.027267
H11	H	-0.171344	0.046481	-0.085133

loop_
_geom_bond_atom_site_label_1
_geom_bond_atom_site_label_2
_geom_bond_distance
_ccdc_geom_bond_type
X1	C1	0.09044	. A
X1	C5	0.08999	. A
C1	C2	0.09116	. A
C2	C3	0.09169	. A
C2	C7	0.10334	. A
C3	C4	0.09033	. A
C3	C6	0.09607	. A
C4	C5	0.09041	. A
C4	C8	0.10267	. A
C5	H1	0.07244	. A
C6	C9	0.08014	. A
C7	C11	0.10215	. A
C7	H10	0.07324	. A
C7	H11	0.07302	. A
C8	C10	0.10153	. A
C8	H5	0.07319	. A
C8	H6	0.07343	. A
C10	H2	0.07297	. A
C10	H3	0.07290	. A
C10	H4	0.07308	. A
C11	H7	0.07306	. A
C11	H8	0.07296	. A
C11	H9	0.07283	. A
