data_tobacco_crystal_2_PM
_symmetry_space_group_name_H-M	'P1'
_cell_length_a	15.000000
_cell_length_b	15.000000
_cell_length_c	15.000000
_cell_angle_alpha	90.000000
_cell_angle_beta	90.000000
_cell_angle_gamma	90.000000
_symmetry_Int_Tables_number 1

loop_
_symmetry_equiv_pos_as_xyz
'x,y,z'

loop_
_atom_site_label
_atom_site_type_symbol
_atom_site_fract_x
_atom_site_fract_y
_atom_site_fract_z
X1	C	0.032617	-0.089858	-0.005567
C1	C	-0.052117	-0.055325	-0.003567
C2	C	-0.063517	0.034408	-0.004367
C3	C	0.004550	0.093208	-0.000500
C4	C	0.088417	0.059208	0.002967
C5	C	0.101617	-0.030458	-0.002300
N1	N	-0.014850	0.183008	0.009300
H1	H	-0.130917	0.061475	-0.004167
C6	C	-0.138317	-0.108325	0.004967
C7	C	0.190750	-0.060858	-0.000367
Br1	Br	0.188350	0.137408	0.021567
N2	N	0.020617	0.235875	-0.044833
H2	H	-0.195183	-0.072992	-0.024300
H3	H	-0.139583	-0.173192	-0.027367
H4	H	-0.152383	-0.117525	0.076167
N3	N	0.259950	-0.096058	0.002367

loop_
_geom_bond_atom_site_label_1
_geom_bond_atom_site_label_2
_geom_bond_distance
_ccdc_geom_bond_type
X1	C1	0.09152	. A
X1	C5	0.09110	. A
C1	C2	0.09046	. A
C1	C6	0.10155	. A
C2	C3	0.09003	. A
C2	H1	0.07263	. A
C3	C4	0.09056	. A
C3	N1	0.09239	. A
C4	C5	0.09079	. A
C5	C7	0.09419	. A
N1	N2	0.08357	. A
C6	H2	0.07307	. A
C6	H3	0.07249	. A
C6	H4	0.07316	. A
C7	N3	0.07769	. A
