data_tobacco_crystal_2_PM
_symmetry_space_group_name_H-M	'P1'
_cell_length_a	15.000000
_cell_length_b	15.000000
_cell_length_c	15.000000
_cell_angle_alpha	90.000000
_cell_angle_beta	90.000000
_cell_angle_gamma	90.000000
_symmetry_Int_Tables_number 1

loop_
_symmetry_equiv_pos_as_xyz
'x,y,z'

loop_
_atom_site_label
_atom_site_type_symbol
_atom_site_fract_x
_atom_site_fract_y
_atom_site_fract_z
X1	C	-0.023413	-0.242691	-0.004085
C1	C	-0.105413	-0.204491	-0.001685
C2	C	-0.115813	-0.115624	0.005648
C3	C	-0.044413	-0.061624	0.012115
C4	C	0.036720	-0.099957	0.007448
C5	C	0.049720	-0.188691	-0.001752
C6	C	-0.054613	0.037843	0.026648
H1	H	-0.183347	-0.088491	0.007315
H2	H	-0.165680	-0.245024	-0.005152
C7	C	0.146187	-0.215824	-0.010819
H3	H	0.095987	-0.058091	0.012248
C8	C	0.027920	0.094376	0.014181
N1	N	-0.013613	0.175509	-0.011219
N2	N	-0.095813	0.161976	-0.048019
N3	N	-0.118080	0.081509	-0.035819
N4	N	0.030253	0.253909	-0.007419
H4	H	0.067853	0.101176	0.074715
H5	H	0.069520	0.074043	-0.042285
H6	H	-0.080747	0.047909	0.094381
N5	N	-0.016347	0.315309	-0.037352
N6	N	0.020053	0.397309	-0.016885
H7	H	0.155253	-0.269224	-0.059485
H8	H	0.173520	-0.235224	0.054048
H9	H	0.187320	-0.160557	-0.035752
N7	N	-0.043013	0.444643	0.008981

loop_
_geom_bond_atom_site_label_1
_geom_bond_atom_site_label_2
_geom_bond_distance
_ccdc_geom_bond_type
X1	C1	0.09049	. A
X1	C5	0.09094	. A
C1	C2	0.08977	. A
C1	H2	0.07271	. A
C2	C3	0.08975	. A
C2	H1	0.07280	. A
C3	C4	0.08985	. A
C3	C6	0.10104	. A
C4	C5	0.09015	. A
C4	H3	0.07272	. A
C5	C7	0.10062	. A
C6	C8	0.10081	. A
C6	N3	0.09918	. A
C6	H6	0.07329	. A
C7	H7	0.07282	. A
C7	H8	0.07301	. A
C7	H9	0.07327	. A
C8	N1	0.09462	. A
C8	H4	0.07284	. A
C8	H5	0.07302	. A
N1	N2	0.09107	. A
N1	N4	0.08992	. A
N2	N3	0.08438	. A
N4	N5	0.08269	. A
N5	N6	0.09202	. A
N6	N7	0.08299	. A
