data_tobacco_crystal_2_PM
_symmetry_space_group_name_H-M	'P1'
_cell_length_a	15.000000
_cell_length_b	15.000000
_cell_length_c	15.000000
_cell_angle_alpha	90.000000
_cell_angle_beta	90.000000
_cell_angle_gamma	90.000000
_symmetry_Int_Tables_number 1

loop_
_symmetry_equiv_pos_as_xyz
'x,y,z'

loop_
_atom_site_label
_atom_site_type_symbol
_atom_site_fract_x
_atom_site_fract_y
_atom_site_fract_z
X1	C	-0.019113	-0.375207	-0.002885
C1	C	-0.089979	-0.319407	-0.003552
C2	C	-0.078646	-0.230274	-0.000352
C3	C	0.003621	-0.193274	0.002982
C4	C	0.074287	-0.250007	0.002515
C5	C	0.063354	-0.339140	-0.000485
C6	C	0.020154	-0.096740	0.011248
H1	H	-0.138646	-0.189674	0.000248
H2	H	-0.157646	-0.345807	-0.005352
H3	H	0.123621	-0.378807	0.000115
H4	H	0.141621	-0.223540	0.005048
C7	C	-0.041646	-0.031740	0.011648
C8	C	-0.029779	0.066460	0.029715
H5	H	-0.111113	-0.050074	0.001915
H6	H	0.089354	-0.077807	0.022582
C9	C	0.059687	0.113993	0.013582
C10	C	0.033687	0.204726	-0.025818
N1	N	-0.063646	0.207860	-0.015352
N2	N	-0.092579	0.117593	-0.025818
N3	N	0.078687	0.281526	0.016515
H7	H	-0.155713	0.109260	-0.001218
H8	H	-0.089313	0.250660	-0.061752
H9	H	0.097287	0.120260	0.075915
H10	H	0.050621	0.204193	-0.097152
H11	H	0.101221	0.077793	-0.034552
H12	H	-0.048313	0.076926	0.099848
N4	N	0.053154	0.351060	-0.021952
N5	N	0.086554	0.428460	0.015582
N6	N	0.039221	0.490726	-0.013218

loop_
_geom_bond_atom_site_label_1
_geom_bond_atom_site_label_2
_geom_bond_distance
_ccdc_geom_bond_type
X1	C1	0.09020	. A
X1	C5	0.09004	. A
C1	C2	0.08991	. A
C1	H2	0.07266	. A
C2	C3	0.09027	. A
C2	H1	0.07245	. A
C3	C4	0.09062	. A
C3	C6	0.09829	. A
C4	C5	0.08985	. A
C4	H4	0.07239	. A
C5	H3	0.07215	. A
C6	C7	0.08969	. A
C6	H6	0.07263	. A
C7	C8	0.10055	. A
C7	H5	0.07250	. A
C8	C9	0.10259	. A
C8	N2	0.09820	. A
C8	H12	0.07329	. A
C9	C10	0.10228	. A
C9	H9	0.07306	. A
C9	H11	0.07316	. A
C10	N1	0.09794	. A
C10	N3	0.09857	. A
C10	H10	0.07332	. A
N1	N2	0.09537	. A
N1	H8	0.06814	. A
N2	H7	0.06827	. A
N3	N4	0.08347	. A
N4	N5	0.09228	. A
N5	N6	0.08335	. A
