data_tobacco_crystal_2_PM
_symmetry_space_group_name_H-M	'P1'
_cell_length_a	15.000000
_cell_length_b	15.000000
_cell_length_c	15.000000
_cell_angle_alpha	90.000000
_cell_angle_beta	90.000000
_cell_angle_gamma	90.000000
_symmetry_Int_Tables_number 1

loop_
_symmetry_equiv_pos_as_xyz
'x,y,z'

loop_
_atom_site_label
_atom_site_type_symbol
_atom_site_fract_x
_atom_site_fract_y
_atom_site_fract_z
X1	C	0.036212	-0.109882	0.002384
C1	C	-0.042388	-0.067216	-0.012216
C2	C	-0.046055	0.023184	-0.012349
C3	C	0.029878	0.071384	-0.002282
C4	C	0.107945	0.028518	0.009384
C5	C	0.111878	-0.061616	0.012918
C6	C	0.029212	0.166518	-0.002416
N1	N	-0.131588	0.067051	-0.019749
N2	N	-0.122788	-0.115949	-0.030149
C7	C	0.197012	-0.101616	0.026918
H1	H	0.168878	0.067518	0.017118
N3	N	0.266478	-0.135349	0.032051
H2	H	-0.176988	-0.078749	-0.045749
H3	H	-0.136988	-0.164816	0.015051
C8	C	0.023478	0.246651	-0.002749
H4	H	-0.132388	0.131384	0.001718
H5	H	-0.181788	0.032984	0.010118

loop_
_geom_bond_atom_site_label_1
_geom_bond_atom_site_label_2
_geom_bond_distance
_ccdc_geom_bond_type
X1	C1	0.09062	. A
X1	C5	0.09037	. A
C1	C2	0.09047	. A
C1	N2	0.09571	. A
C2	C3	0.09050	. A
C2	N1	0.09641	. A
C3	C4	0.08982	. A
C3	C6	0.09514	. A
C4	C5	0.09029	. A
C4	H1	0.07276	. A
C5	C7	0.09510	. A
C6	C8	0.08034	. A
N1	H4	0.06783	. A
N1	H5	0.06762	. A
N2	H2	0.06756	. A
N2	H3	0.06806	. A
C7	N3	0.07739	. A
