data_tobacco_crystal_2_PM
_symmetry_space_group_name_H-M	'P1'
_cell_length_a	15.000000
_cell_length_b	15.000000
_cell_length_c	15.000000
_cell_angle_alpha	90.000000
_cell_angle_beta	90.000000
_cell_angle_gamma	90.000000
_symmetry_Int_Tables_number 1

loop_
_symmetry_equiv_pos_as_xyz
'x,y,z'

loop_
_atom_site_label
_atom_site_type_symbol
_atom_site_fract_x
_atom_site_fract_y
_atom_site_fract_z
X1	C	0.023364	-0.502753	0.010987
C1	C	-0.051369	-0.454020	0.018587
C2	C	-0.048302	-0.364820	0.011054
C3	C	0.028164	-0.318820	-0.007146
C4	C	0.104364	-0.369220	-0.012413
C5	C	0.100698	-0.459153	-0.002280
C6	C	0.019631	-0.219086	-0.017480
H1	H	-0.111836	-0.331286	0.019920
H2	H	-0.115702	-0.485686	0.030320
H3	H	0.162964	-0.495486	-0.006813
Br1	Br	0.221364	-0.326886	-0.036480
C7	C	-0.059169	-0.181153	-0.042346
C8	C	-0.073236	-0.092486	-0.039813
C9	C	-0.007302	-0.036620	-0.015213
C10	C	0.073764	-0.072020	0.000854
C11	C	0.085964	-0.160686	0.001654
C12	C	-0.022102	0.058180	0.013454
H4	H	-0.140102	-0.067820	-0.052946
H5	H	-0.116569	-0.221286	-0.060880
H6	H	0.151364	-0.181620	0.023120
H7	H	0.128898	-0.028753	0.019654
O1	O	0.021498	0.128047	-0.036146
C13	C	-0.097369	0.189247	0.049920
C14	C	-0.116236	0.093247	0.024787
C15	C	0.021231	0.296314	-0.016746
H8	H	-0.154569	0.058047	0.075787
H9	H	-0.100769	0.199180	0.122187
H10	H	-0.147636	0.232847	0.020587
H11	H	-0.153036	0.091514	-0.038346
H12	H	0.041164	0.196714	0.078320
C16	C	-0.000369	0.204314	0.018120
H13	H	0.007631	0.059047	0.080854
C17	C	-0.041436	0.348714	-0.055013
C18	C	-0.030102	0.437580	-0.060146
C19	C	0.045231	0.474514	-0.028346
C20	C	0.112364	0.422580	0.001254
C21	C	0.100031	0.333980	0.006920
H14	H	-0.084236	0.478847	-0.085280
H15	H	-0.104769	0.321447	-0.076813
H16	H	0.152564	0.293447	0.036654
H17	H	0.173964	0.451847	0.025654

loop_
_geom_bond_atom_site_label_1
_geom_bond_atom_site_label_2
_geom_bond_distance
_ccdc_geom_bond_type
X1	C1	0.08954	. A
X1	C5	0.08976	. A
X1	C18	0.10714	. A
X1	C19	0.05042	. A
X1	C20	0.11658	. A
C1	C2	0.08957	. A
C1	H2	0.07266	. A
C2	C3	0.09107	. A
C2	H1	0.07238	. A
C3	C4	0.09151	. A
C3	C6	0.10063	. A
C4	C5	0.09058	. A
C5	H3	0.07223	. A
C5	C19	0.09031	. A
C5	C20	0.11889	. A
C5	H17	0.11861	. A
C6	C7	0.09092	. A
C6	C11	0.09043	. A
H3	H17	0.06284	. A
C7	C8	0.08981	. A
C7	H5	0.07245	. A
C8	C9	0.08985	. A
C8	H4	0.07247	. A
C9	C10	0.08991	. A
C9	C12	0.10014	. A
C10	C11	0.08951	. A
C10	H7	0.07256	. A
C11	H6	0.07195	. A
C12	O1	0.09614	. A
C12	C14	0.10109	. A
C12	H13	0.07367	. A
O1	C16	0.09612	. A
C13	C14	0.10101	. A
C13	H9	0.07303	. A
C13	H10	0.07272	. A
C13	C16	0.10319	. A
C14	H8	0.07287	. A
C14	H11	0.07310	. A
C15	C16	0.10073	. A
C15	C17	0.09021	. A
C15	C21	0.09049	. A
H12	C16	0.07353	. A
C17	C18	0.08973	. A
C17	H15	0.07232	. A
C18	C19	0.08972	. A
C18	H14	0.07256	. A
C19	C20	0.08989	. A
C20	C21	0.08963	. A
C20	H17	0.07243	. A
C21	H16	0.07271	. A
