data_tobacco_crystal_2_PM
_symmetry_space_group_name_H-M	'P1'
_cell_length_a	15.000000
_cell_length_b	15.000000
_cell_length_c	15.000000
_cell_angle_alpha	90.000000
_cell_angle_beta	90.000000
_cell_angle_gamma	90.000000
_symmetry_Int_Tables_number 1

loop_
_symmetry_equiv_pos_as_xyz
'x,y,z'

loop_
_atom_site_label
_atom_site_type_symbol
_atom_site_fract_x
_atom_site_fract_y
_atom_site_fract_z
X1	C	-0.014465	-0.351916	-0.009638
C1	C	-0.094532	-0.311983	-0.019238
C2	C	-0.100798	-0.222716	-0.017238
C3	C	-0.028665	-0.169383	-0.003571
C4	C	0.052602	-0.209316	0.011162
C5	C	0.057002	-0.300250	0.005362
C6	C	-0.043998	-0.071116	-0.003971
H1	H	-0.166798	-0.194050	-0.026304
H2	H	-0.154465	-0.351583	-0.028838
H3	H	0.121602	-0.330583	0.015496
C7	C	0.142135	-0.167650	0.042029
C8	C	-0.105998	-0.032783	0.049896
C9	C	-0.113798	0.056617	0.056162
C10	C	-0.057998	0.111684	0.011296
C11	C	-0.002198	0.073617	-0.048171
C12	C	0.000935	-0.015450	-0.059438
C13	C	-0.055732	0.210284	0.034229
H4	H	-0.163798	0.084217	0.100896
H5	H	-0.150332	-0.073583	0.090296
N1	N	0.053135	-0.048516	-0.131438
H6	H	0.042202	0.114884	-0.087571
C14	C	0.191068	-0.089850	-0.001038
H7	H	0.161402	-0.025783	0.016496
H8	H	0.259602	-0.087516	0.024696
H9	H	0.197535	-0.097383	-0.073171
H10	H	0.193068	-0.220450	0.039096
H11	H	0.135668	-0.153316	0.113496
C15	C	0.024002	0.266417	0.004962
C16	C	-0.006865	0.359417	0.030696
N2	N	-0.105732	0.356350	0.021229
N3	N	-0.128665	0.264350	-0.002171
H12	H	-0.187532	0.245617	0.026762
H13	H	-0.123998	0.400350	-0.028104
H14	H	0.085468	0.247484	0.039496
H15	H	0.008735	0.372950	0.100829
H16	H	0.036135	0.262217	-0.067171
H17	H	-0.058398	0.213950	0.107629
H18	H	0.067135	-0.005383	-0.181304
H19	H	0.035335	-0.109850	-0.153838

loop_
_geom_bond_atom_site_label_1
_geom_bond_atom_site_label_2
_geom_bond_distance
_ccdc_geom_bond_type
X1	C1	0.08999	. A
X1	C5	0.08945	. A
C1	C2	0.08951	. A
C1	H2	0.07247	. A
C2	C3	0.09074	. A
C2	H1	0.07253	. A
C3	C4	0.09174	. A
C3	C6	0.09946	. A
C4	C5	0.09122	. A
C4	C7	0.10347	. A
C5	H3	0.07208	. A
C6	C8	0.09064	. A
C6	C12	0.09052	. A
C7	C14	0.10150	. A
C7	H10	0.07342	. A
C7	H11	0.07318	. A
C8	C9	0.08996	. A
C8	H5	0.07254	. A
C9	C10	0.09033	. A
C9	H4	0.07255	. A
C10	C11	0.08999	. A
C10	C13	0.10126	. A
C11	C12	0.08983	. A
C11	H6	0.07230	. A
C12	N1	0.09488	. A
C13	C15	0.10181	. A
C13	N3	0.09781	. A
C13	H17	0.07354	. A
N1	H18	0.06740	. A
N1	H19	0.06768	. A
C14	H7	0.07275	. A
C14	H8	0.07324	. A
C14	H9	0.07281	. A
C15	C16	0.10131	. A
C15	H14	0.07300	. A
C15	H16	0.07327	. A
C16	N2	0.09937	. A
C16	H15	0.07311	. A
N2	N3	0.09766	. A
N2	H13	0.06858	. A
N3	H12	0.06822	. A
