data_tobacco_crystal_2_PM
_symmetry_space_group_name_H-M	'P1'
_cell_length_a	15.000000
_cell_length_b	15.000000
_cell_length_c	15.000000
_cell_angle_alpha	90.000000
_cell_angle_beta	90.000000
_cell_angle_gamma	90.000000
_symmetry_Int_Tables_number 1

loop_
_symmetry_equiv_pos_as_xyz
'x,y,z'

loop_
_atom_site_label
_atom_site_type_symbol
_atom_site_fract_x
_atom_site_fract_y
_atom_site_fract_z
X1	C	-0.010939	-0.265875	0.012374
C1	C	-0.084339	-0.214475	0.018441
C2	C	-0.079206	-0.125409	0.012641
C3	C	-0.001139	-0.081209	-0.000559
C4	C	0.074061	-0.133209	-0.004759
C5	C	0.068861	-0.224409	0.002641
C6	C	-0.006539	0.021325	-0.017626
H1	H	-0.142472	-0.090342	0.016707
H2	H	-0.150472	-0.244009	0.026641
Cl1	Cl	0.166661	-0.288742	-0.002359
Br1	Br	0.187661	-0.080209	-0.026226
C7	C	0.061928	0.091925	0.012574
C8	C	0.016194	0.176858	-0.019293
N1	N	-0.079339	0.160391	-0.005426
N2	N	-0.088006	0.066191	0.017374
C9	C	0.043328	0.263525	0.016307
H3	H	-0.143606	0.041191	-0.012893
H4	H	-0.102606	0.200058	0.045041
H5	H	0.126194	0.087058	-0.021159
H6	H	0.026594	0.180991	-0.091759
H7	H	0.073261	0.090658	0.084841
H8	H	-0.010406	0.025258	-0.090893
C10	C	0.054328	0.342458	0.027374

loop_
_geom_bond_atom_site_label_1
_geom_bond_atom_site_label_2
_geom_bond_distance
_ccdc_geom_bond_type
X1	C1	0.08981	. A
X1	C5	0.09046	. A
C1	C2	0.08940	. A
C1	H2	0.07289	. A
C2	C3	0.09068	. A
C2	H1	0.07245	. A
C3	C4	0.09152	. A
C3	C6	0.10408	. A
C4	C5	0.09165	. A
C5	Cl1	0.11717	. A
C6	C7	0.10288	. A
C6	N2	0.09937	. A
C6	H8	0.07347	. A
C7	C8	0.10159	. A
C7	H5	0.07274	. A
C7	H7	0.07316	. A
C8	N1	0.09793	. A
C8	C9	0.09754	. A
C8	H6	0.07333	. A
N1	N2	0.09731	. A
N1	H4	0.06828	. A
N2	H3	0.06806	. A
C9	C10	0.08046	. A
