data_tobacco_crystal_2_PM
_symmetry_space_group_name_H-M	'P1'
_cell_length_a	15.000000
_cell_length_b	15.000000
_cell_length_c	15.000000
_cell_angle_alpha	90.000000
_cell_angle_beta	90.000000
_cell_angle_gamma	90.000000
_symmetry_Int_Tables_number 1

loop_
_symmetry_equiv_pos_as_xyz
'x,y,z'

loop_
_atom_site_label
_atom_site_type_symbol
_atom_site_fract_x
_atom_site_fract_y
_atom_site_fract_z
X1	C	0.006067	-0.356861	0.009472
C1	C	-0.070000	-0.308861	0.012406
C2	C	-0.068333	-0.219261	0.008539
C3	C	0.008733	-0.171594	0.001272
C4	C	0.083533	-0.222194	-0.003128
C5	C	0.083267	-0.311861	0.002006
C6	C	0.009267	-0.070728	-0.003994
H1	H	-0.133400	-0.187994	0.011139
H2	H	-0.134400	-0.342128	0.018006
H3	H	0.147867	-0.344261	-0.000394
H4	H	0.148867	-0.194128	-0.011528
C7	C	-0.069600	-0.025261	0.000672
C8	C	-0.076533	0.064339	0.001406
C9	C	-0.003067	0.114139	-0.013928
C10	C	0.075267	0.070672	-0.019994
C11	C	0.084000	-0.018061	-0.007994
C12	C	-0.003200	0.214872	-0.018794
C13	C	-0.230200	0.103606	-0.024594
H5	H	-0.132267	-0.059728	0.010072
C14	C	0.179667	-0.044928	0.010739
H6	H	0.136200	0.108939	-0.029594
H7	H	0.211733	-0.078061	-0.045528
H8	H	0.221600	0.012872	0.027406
H9	H	0.182467	-0.085394	0.071606
H10	H	-0.239000	0.041072	-0.060794
H11	H	-0.227267	0.160206	-0.070394
H12	H	-0.288000	0.113139	0.019072
O1	O	-0.154000	0.104272	0.030939
C15	C	0.083067	0.259672	0.008339
N1	N	0.048200	0.344672	0.034272
N2	N	-0.039000	0.338939	0.058406
N3	N	-0.067200	0.261606	0.040672
H13	H	0.131733	0.264606	-0.045661
H14	H	0.113933	0.229672	0.067406
H15	H	-0.020000	0.234006	-0.087528

loop_
_geom_bond_atom_site_label_1
_geom_bond_atom_site_label_2
_geom_bond_distance
_ccdc_geom_bond_type
X1	C1	0.08999	. A
X1	C5	0.08967	. A
C1	C2	0.08970	. A
C1	H2	0.07270	. A
C2	C3	0.09091	. A
C2	H1	0.07224	. A
C3	C4	0.09041	. A
C3	C6	0.10101	. A
C4	C5	0.08981	. A
C4	H4	0.07160	. A
C5	H3	0.07231	. A
C6	C7	0.09115	. A
C6	C11	0.09151	. A
C7	C8	0.08987	. A
C7	H5	0.07213	. A
C8	C9	0.09007	. A
C8	O1	0.09202	. A
C9	C10	0.08979	. A
C9	C12	0.10085	. A
C10	C11	0.08997	. A
C10	H6	0.07259	. A
C11	C14	0.10112	. A
C12	C15	0.10092	. A
C12	N3	0.09908	. A
C12	H15	0.07330	. A
C13	H10	0.07279	. A
C13	H11	0.07287	. A
C13	H12	0.07307	. A
C13	O1	0.09429	. A
C14	H7	0.07275	. A
C14	H8	0.07333	. A
C14	H9	0.07314	. A
C15	N1	0.09546	. A
C15	H13	0.07286	. A
C15	H14	0.07309	. A
N1	N2	0.09066	. A
N2	N3	0.08420	. A
