data_tobacco_crystal_2_PM
_symmetry_space_group_name_H-M	'P1'
_cell_length_a	15.000000
_cell_length_b	15.000000
_cell_length_c	15.000000
_cell_angle_alpha	90.000000
_cell_angle_beta	90.000000
_cell_angle_gamma	90.000000
_symmetry_Int_Tables_number 1

loop_
_symmetry_equiv_pos_as_xyz
'x,y,z'

loop_
_atom_site_label
_atom_site_type_symbol
_atom_site_fract_x
_atom_site_fract_y
_atom_site_fract_z
X1	C	0.003564	-0.286333	-0.000169
C1	C	-0.075969	-0.245067	0.006364
C2	C	-0.079503	-0.156933	0.020564
C3	C	-0.005103	-0.106600	0.028631
C4	C	0.075631	-0.148533	0.024497
C5	C	0.079364	-0.238467	0.009897
N1	N	-0.021169	-0.016533	0.028964
H1	H	-0.144636	-0.124800	0.022497
H2	H	-0.138169	-0.281600	-0.001769
O1	O	0.161631	-0.281667	0.003097
Br1	Br	0.186431	-0.087133	0.032831
N2	N	0.032631	0.039467	0.057964
C6	C	0.026964	0.121467	0.003497
O2	O	0.071897	0.200600	0.033564
C7	C	-0.064636	0.250667	-0.021836
C8	C	-0.069369	0.150533	-0.012503
H3	H	-0.113236	0.132867	0.043231
H4	H	-0.100103	0.281800	0.033964
H5	H	-0.095836	0.274200	-0.083436
H6	H	-0.096436	0.118467	-0.072303
H7	H	0.062897	0.266067	-0.086169
C9	C	0.034497	0.271267	-0.018836
H8	H	0.057897	0.105200	-0.060969
H9	H	0.210764	-0.238933	0.008431

loop_
_geom_bond_atom_site_label_1
_geom_bond_atom_site_label_2
_geom_bond_distance
_ccdc_geom_bond_type
X1	C1	0.08984	. A
X1	C5	0.09021	. A
C1	C2	0.08934	. A
C1	H2	0.07259	. A
C2	C3	0.09019	. A
C2	H1	0.07265	. A
C3	C4	0.09107	. A
C3	N1	0.09149	. A
C4	C5	0.09119	. A
C5	O1	0.09317	. A
N1	N2	0.08289	. A
O1	H9	0.06534	. A
N2	C6	0.09860	. A
C6	O2	0.09584	. A
C6	C8	0.10189	. A
C6	H8	0.07333	. A
O2	C9	0.09559	. A
C7	C8	0.10068	. A
C7	H4	0.07308	. A
C7	H5	0.07295	. A
C7	C9	0.10130	. A
C8	H3	0.07309	. A
C8	H6	0.07305	. A
H7	C9	0.07326	. A
