data_tobacco_crystal_2_PM
_symmetry_space_group_name_H-M	'P1'
_cell_length_a	15.000000
_cell_length_b	15.000000
_cell_length_c	15.000000
_cell_angle_alpha	90.000000
_cell_angle_beta	90.000000
_cell_angle_gamma	90.000000
_symmetry_Int_Tables_number 1

loop_
_symmetry_equiv_pos_as_xyz
'x,y,z'

loop_
_atom_site_label
_atom_site_type_symbol
_atom_site_fract_x
_atom_site_fract_y
_atom_site_fract_z
X1	C	0.022975	-0.498924	-0.014979
C1	C	-0.049759	-0.466390	0.026354
C2	C	-0.057092	-0.377857	0.040154
C3	C	0.007241	-0.321257	0.011554
C4	C	0.077708	-0.355724	-0.033713
C5	C	0.086641	-0.444257	-0.046113
C6	C	-0.001425	-0.224190	0.017887
H1	H	-0.116425	-0.352990	0.073421
H2	H	-0.103092	-0.510324	0.047754
H3	H	0.144308	-0.468590	-0.082179
H4	H	0.128908	-0.313457	-0.062446
C7	C	-0.081159	-0.186924	-0.001846
C8	C	-0.088892	-0.099657	-0.018179
C9	C	-0.016559	-0.046257	-0.016579
C10	C	0.059841	-0.081190	0.016687
C11	C	0.068575	-0.168724	0.034087
C12	C	-0.020092	0.047810	-0.043113
H5	H	-0.154559	-0.075524	-0.035846
H6	H	-0.140959	-0.227257	-0.009779
C13	C	0.153775	-0.198390	0.064687
H7	H	0.118041	-0.039524	0.028354
C14	C	-0.097492	0.093276	-0.048779
C15	C	-0.097625	0.182610	-0.047513
C16	C	-0.019559	0.226076	-0.037379
C17	C	0.057441	0.182610	-0.053513
C18	C	0.056775	0.093610	-0.057313
C19	C	-0.017959	0.312810	0.011687
H8	H	-0.161492	0.216410	-0.042179
H9	H	-0.162225	0.061276	-0.045313
H10	H	0.121375	0.061210	-0.062379
H11	H	0.121841	0.215743	-0.052179
N1	N	0.224841	-0.220524	0.086887
C20	C	0.063708	0.371476	0.005821
C21	C	0.031241	0.457543	0.048421
N2	N	-0.067025	0.448476	0.058021
N3	N	-0.092225	0.374676	0.000954
H12	H	-0.148759	0.344876	0.025021
H13	H	-0.095692	0.507143	0.036954
H14	H	0.085641	0.380143	-0.063446
H15	H	0.060708	0.467410	0.114421
H16	H	0.119175	0.342743	0.043954
H17	H	-0.020692	0.290010	0.081687

loop_
_geom_bond_atom_site_label_1
_geom_bond_atom_site_label_2
_geom_bond_distance
_ccdc_geom_bond_type
X1	C1	0.08976	. A
X1	C5	0.08951	. A
X1	C21	0.07735	. A
C1	C2	0.08990	. A
C1	H2	0.07234	. A
C1	C21	0.11329	. A
C1	N2	0.09246	. A
C1	H13	0.05406	. A
C2	C3	0.09033	. A
C2	H1	0.07243	. A
C2	H13	0.12135	. A
C3	C4	0.09057	. A
C3	C6	0.09766	. A
C4	C5	0.08984	. A
C4	H4	0.07234	. A
C5	H3	0.07224	. A
C6	C7	0.09020	. A
C6	C11	0.09077	. A
H2	N2	0.05571	. A
C7	C8	0.08912	. A
C7	H6	0.07257	. A
C8	C9	0.08992	. A
C8	H5	0.07216	. A
C9	C10	0.09035	. A
C9	C12	0.09780	. A
C10	C11	0.08967	. A
C10	H7	0.07252	. A
C11	C13	0.09527	. A
C12	C14	0.08994	. A
C12	C18	0.09060	. A
C13	N1	0.07767	. A
C14	C15	0.08934	. A
C14	H9	0.07229	. A
C15	C16	0.08992	. A
C15	H8	0.07246	. A
C16	C17	0.08988	. A
C16	C19	0.09966	. A
C17	C18	0.08908	. A
C17	H11	0.07244	. A
C18	H10	0.07245	. A
C19	C20	0.10073	. A
C19	N3	0.09725	. A
C19	H17	0.07367	. A
C20	C21	0.10137	. A
C20	H14	0.07317	. A
C20	H16	0.07319	. A
C21	N2	0.09915	. A
C21	H15	0.07295	. A
N2	N3	0.09663	. A
N2	H13	0.06861	. A
N3	H12	0.06829	. A
