data_tobacco_crystal_2_PM
_symmetry_space_group_name_H-M	'P1'
_cell_length_a	15.000000
_cell_length_b	15.000000
_cell_length_c	15.000000
_cell_angle_alpha	90.000000
_cell_angle_beta	90.000000
_cell_angle_gamma	90.000000
_symmetry_Int_Tables_number 1

loop_
_symmetry_equiv_pos_as_xyz
'x,y,z'

loop_
_atom_site_label
_atom_site_type_symbol
_atom_site_fract_x
_atom_site_fract_y
_atom_site_fract_z
X1	C	0.030383	-0.076117	0.003033
C1	C	-0.047417	-0.028850	-0.003167
C2	C	-0.047617	0.061083	0.000167
C3	C	0.028717	0.107083	0.008767
C4	C	0.105183	0.061750	0.015700
C5	C	0.107717	-0.028983	0.013367
F1	F	-0.126683	0.103950	-0.008167
N1	N	-0.133217	-0.068050	-0.013767
Br1	Br	0.223383	-0.079317	0.025100
F2	F	0.182650	0.107217	0.025233
H1	H	-0.137150	-0.131317	-0.038767
H2	H	-0.185950	-0.028450	-0.027500

loop_
_geom_bond_atom_site_label_1
_geom_bond_atom_site_label_2
_geom_bond_distance
_ccdc_geom_bond_type
X1	C1	0.09124	. A
X1	C5	0.09115	. A
C1	C2	0.09000	. A
C1	N1	0.09492	. A
C2	C3	0.08954	. A
C2	F1	0.09032	. A
C3	C4	0.08916	. A
C4	C5	0.09080	. A
C4	F2	0.09033	. A
N1	H1	0.06814	. A
N1	H2	0.06736	. A
