data_tobacco_crystal_2_PM
_symmetry_space_group_name_H-M	'P1'
_cell_length_a	15.000000
_cell_length_b	15.000000
_cell_length_c	15.000000
_cell_angle_alpha	90.000000
_cell_angle_beta	90.000000
_cell_angle_gamma	90.000000
_symmetry_Int_Tables_number 1

loop_
_symmetry_equiv_pos_as_xyz
'x,y,z'

loop_
_atom_site_label
_atom_site_type_symbol
_atom_site_fract_x
_atom_site_fract_y
_atom_site_fract_z
X1	C	0.019099	-0.189972	-0.013798
C1	C	-0.061501	-0.155772	-0.035065
C2	C	-0.074301	-0.067172	-0.043531
C3	C	-0.004568	-0.011772	-0.028131
C4	C	0.077366	-0.047838	-0.017198
C5	C	0.092366	-0.136972	-0.010065
C6	C	-0.015301	0.086362	-0.004931
C7	C	-0.226768	-0.058638	-0.003598
H1	H	-0.118701	-0.199972	-0.041731
C8	C	0.189566	-0.160238	0.008935
H2	H	0.133232	-0.002105	-0.007998
O1	O	0.045499	0.148828	-0.045465
C9	C	-0.079168	0.230495	0.004602
C10	C	-0.104701	0.133895	-0.008331
N1	N	0.050499	0.317828	-0.036131
H3	H	-0.137101	0.126895	-0.073331
H4	H	-0.108768	0.270962	-0.048598
H5	H	-0.103034	0.257628	0.068002
H6	H	-0.150234	0.111028	0.043802
H7	H	0.050766	0.223895	0.067935
C11	C	0.023032	0.231228	0.000335
H8	H	0.002966	0.085828	0.066469
C12	C	0.218899	-0.254172	0.032402
H9	H	0.288699	-0.252772	0.054069
H10	H	0.216499	-0.298105	-0.025665
H11	H	0.179632	-0.282372	0.086802
H12	H	0.212232	-0.117438	0.064002
H13	H	0.228632	-0.139972	-0.049798
H14	H	-0.251434	-0.125238	-0.019865
H15	H	-0.204501	-0.055038	0.065869
H16	H	-0.281701	-0.011305	-0.012131
O2	O	-0.157568	-0.032772	-0.063131
N2	N	0.050366	0.374762	0.025269

loop_
_geom_bond_atom_site_label_1
_geom_bond_atom_site_label_2
_geom_bond_distance
_ccdc_geom_bond_type
X1	C1	0.09010	. A
X1	C5	0.09050	. A
C1	C2	0.08992	. A
C1	H1	0.07259	. A
C2	C3	0.09038	. A
C2	O2	0.09220	. A
C3	C4	0.09019	. A
C3	C6	0.10141	. A
C4	C5	0.09067	. A
C4	H2	0.07278	. A
C5	C8	0.10174	. A
C6	O1	0.09613	. A
C6	C10	0.10131	. A
C6	H8	0.07370	. A
C7	H14	0.07286	. A
C7	H15	0.07304	. A
C7	H16	0.07301	. A
C7	O2	0.09488	. A
C8	C12	0.10117	. A
C8	H12	0.07333	. A
C8	H13	0.07339	. A
O1	C11	0.09691	. A
C9	C10	0.10075	. A
C9	H4	0.07310	. A
C9	H5	0.07298	. A
C9	C11	0.10229	. A
C10	H3	0.07296	. A
C10	H6	0.07290	. A
N1	C11	0.09790	. A
N1	N2	0.08373	. A
H7	C11	0.07343	. A
C12	H9	0.07310	. A
C12	H10	0.07285	. A
C12	H11	0.07278	. A
