data_tobacco_crystal_2_PM
_symmetry_space_group_name_H-M	'P1'
_cell_length_a	15.000000
_cell_length_b	15.000000
_cell_length_c	15.000000
_cell_angle_alpha	90.000000
_cell_angle_beta	90.000000
_cell_angle_gamma	90.000000
_symmetry_Int_Tables_number 1

loop_
_symmetry_equiv_pos_as_xyz
'x,y,z'

loop_
_atom_site_label
_atom_site_type_symbol
_atom_site_fract_x
_atom_site_fract_y
_atom_site_fract_z
X1	C	-0.030115	-0.362000	0.005178
C1	C	-0.107381	-0.315667	0.002911
C2	C	-0.108715	-0.226200	-0.001422
C3	C	-0.033048	-0.176667	-0.004956
C4	C	0.044419	-0.223400	0.000311
C5	C	0.047485	-0.314400	0.005578
C6	C	-0.037981	-0.074667	-0.020289
H1	H	-0.174048	-0.195200	-0.005089
H2	H	-0.171581	-0.349867	0.003444
C7	C	0.139219	-0.355467	0.012511
H3	H	0.106485	-0.186467	-0.001222
C8	C	0.032419	-0.003200	0.006778
C9	C	-0.016781	0.083733	-0.022556
N1	N	-0.111515	0.062000	-0.001289
N2	N	-0.117315	-0.032267	0.018911
C10	C	0.006419	0.183733	-0.004022
H4	H	-0.173981	-0.058200	-0.008356
H5	H	-0.129781	0.097333	0.054311
H6	H	0.095085	-0.012667	-0.029556
H7	H	-0.012381	0.081733	-0.095889
H8	H	0.046152	-0.004467	0.078644
H9	H	-0.044515	-0.070133	-0.093356
C11	C	-0.060581	0.244933	0.000378
C12	C	-0.046248	0.333333	0.007578
C13	C	0.037219	0.367467	0.010178
C14	C	0.104619	0.307067	0.008178
C15	C	0.090219	0.217933	0.001844
N3	N	0.055885	0.458333	0.013044
H10	H	-0.103781	0.377333	0.009044
H11	H	-0.129915	0.224867	-0.004956
H12	H	0.147885	0.174267	-0.001756
H13	H	0.172685	0.332200	0.009911
N4	N	-0.007848	0.511667	0.001978
H14	H	0.140752	-0.411267	0.059511
H15	H	0.162152	-0.378000	-0.053089
H16	H	0.188419	-0.307733	0.037578

loop_
_geom_bond_atom_site_label_1
_geom_bond_atom_site_label_2
_geom_bond_distance
_ccdc_geom_bond_type
X1	C1	0.09012	. A
X1	C5	0.09104	. A
C1	C2	0.08958	. A
C1	H2	0.07274	. A
C2	C3	0.09051	. A
C2	H1	0.07241	. A
C3	C4	0.09062	. A
C3	C6	0.10326	. A
C4	C5	0.09120	. A
C4	H3	0.07224	. A
C5	C7	0.10074	. A
C6	C8	0.10390	. A
C6	N2	0.09812	. A
C6	H9	0.07350	. A
C7	H14	0.07297	. A
C7	H15	0.07306	. A
C7	H16	0.07299	. A
C8	C9	0.10411	. A
C8	H6	0.07305	. A
C8	H8	0.07318	. A
C9	N1	0.09949	. A
C9	C10	0.10432	. A
C9	H7	0.07349	. A
N1	N2	0.09658	. A
N1	H5	0.06836	. A
N2	H4	0.06802	. A
C10	C11	0.09085	. A
C10	C15	0.09070	. A
C11	C12	0.08984	. A
C11	H11	0.07238	. A
C12	C13	0.09021	. A
C12	H10	0.07244	. A
C13	C14	0.09053	. A
C13	N3	0.09281	. A
C14	C15	0.09051	. A
C14	H13	0.07258	. A
C15	H12	0.07242	. A
N3	N4	0.08384	. A
