data_tobacco_crystal_2_PM
_symmetry_space_group_name_H-M	'P1'
_cell_length_a	15.000000
_cell_length_b	15.000000
_cell_length_c	15.000000
_cell_angle_alpha	90.000000
_cell_angle_beta	90.000000
_cell_angle_gamma	90.000000
_symmetry_Int_Tables_number 1

loop_
_symmetry_equiv_pos_as_xyz
'x,y,z'

loop_
_atom_site_label
_atom_site_type_symbol
_atom_site_fract_x
_atom_site_fract_y
_atom_site_fract_z
X1	C	0.009871	-0.115289	0.005467
C1	C	-0.074929	-0.083822	0.004467
C2	C	-0.089262	0.005844	0.002800
C3	C	-0.019262	0.063311	-0.000667
C4	C	0.065804	0.031911	-0.002600
C5	C	0.078271	-0.057289	0.001267
C6	C	-0.179529	0.036711	0.007600
O1	O	-0.145662	-0.143689	0.005133
F1	F	0.162871	-0.088556	0.001267
C7	C	0.146738	0.091844	-0.009467
H1	H	0.158138	0.127311	0.053267
H2	H	0.207804	0.054578	-0.024400
H3	H	0.139071	0.140044	-0.063800
N1	N	-0.254329	0.055911	0.013000
H4	H	-0.205596	-0.118822	0.006667

loop_
_geom_bond_atom_site_label_1
_geom_bond_atom_site_label_2
_geom_bond_distance
_ccdc_geom_bond_type
X1	C1	0.09046	. A
X1	C5	0.08978	. A
C1	C2	0.09082	. A
C1	O1	0.09267	. A
C2	C3	0.09063	. A
C2	C6	0.09552	. A
C3	C4	0.09070	. A
C4	C5	0.09015	. A
C4	C7	0.10094	. A
C5	F1	0.09019	. A
C6	N1	0.07741	. A
O1	H4	0.06491	. A
C7	H1	0.07296	. A
C7	H2	0.07308	. A
C7	H3	0.07304	. A
