data_tobacco_crystal_2_PM
_symmetry_space_group_name_H-M	'P1'
_cell_length_a	15.000000
_cell_length_b	15.000000
_cell_length_c	15.000000
_cell_angle_alpha	90.000000
_cell_angle_beta	90.000000
_cell_angle_gamma	90.000000
_symmetry_Int_Tables_number 1

loop_
_symmetry_equiv_pos_as_xyz
'x,y,z'

loop_
_atom_site_label
_atom_site_type_symbol
_atom_site_fract_x
_atom_site_fract_y
_atom_site_fract_z
X1	C	-0.025908	-0.574245	0.007838
C1	C	-0.097241	-0.519512	0.013172
C2	C	-0.086974	-0.430179	0.014038
C3	C	-0.005041	-0.392445	0.009505
C4	C	0.065959	-0.448045	0.005972
C5	C	0.055959	-0.537245	0.004505
C6	C	0.007759	-0.296445	-0.004228
H1	H	-0.146841	-0.388979	0.014572
H2	H	-0.164574	-0.546845	0.014905
H3	H	0.116226	-0.576845	-0.001628
H4	H	0.132959	-0.420445	0.000505
C7	C	-0.044108	-0.229112	0.024638
C8	C	-0.045241	-0.138845	-0.020695
H5	H	-0.098041	-0.243379	0.071038
H6	H	0.061559	-0.280179	-0.050228
O1	O	0.008626	-0.069645	0.019238
C9	C	-0.125974	-0.001512	-0.013362
C10	C	-0.139441	-0.100779	-0.022828
C11	C	0.004692	0.099288	0.031572
H7	H	-0.174641	-0.118779	-0.084095
H8	H	-0.150574	0.016555	0.053105
H9	H	-0.163174	0.037155	-0.062562
H10	H	-0.180708	-0.124245	0.032905
H11	H	-0.002574	0.016155	-0.088495
C12	C	-0.025374	0.013755	-0.019028
H12	H	-0.021974	-0.146845	-0.089628
O2	O	0.077492	0.150955	-0.008162
C13	C	-0.014908	0.244488	0.081238
C14	C	-0.066241	0.171488	0.035638
C15	C	0.095359	0.318888	-0.030562
H13	H	-0.126308	0.154088	0.072505
H14	H	-0.049774	0.308221	0.079238
H15	H	-0.007108	0.227955	0.152038
H16	H	-0.084908	0.192555	-0.032095
H17	H	0.128559	0.237755	0.086505
C16	C	0.076292	0.239821	0.035372
H18	H	0.027159	0.079755	0.098438
C17	C	0.179292	0.372355	-0.006362
C18	C	0.165559	0.463421	-0.049162
N1	N	0.068759	0.469888	-0.066695
N2	N	0.028426	0.390821	-0.029362
H19	H	-0.026774	0.371688	-0.064695
H20	H	0.045426	0.526955	-0.036162
H21	H	0.239559	0.340155	-0.032362
H22	H	0.199959	0.468421	-0.113295
H23	H	0.186626	0.378688	0.066172
H24	H	0.102226	0.293288	-0.098962

loop_
_geom_bond_atom_site_label_1
_geom_bond_atom_site_label_2
_geom_bond_distance
_ccdc_geom_bond_type
X1	C1	0.09007	. A
X1	C5	0.08990	. A
X1	N2	0.07454	. A
X1	H19	0.09047	. A
C1	C2	0.08993	. A
C1	H2	0.07269	. A
C2	C3	0.09032	. A
C2	H1	0.07268	. A
C3	C4	0.09025	. A
C3	C6	0.09782	. A
C3	H20	0.10549	. A
C4	C5	0.08977	. A
C4	H4	0.07267	. A
C4	N1	0.10965	. A
C4	H20	0.05312	. A
C5	H3	0.07237	. A
C5	C18	0.12204	. A
C5	N1	0.07269	. A
C5	N2	0.08414	. A
C5	H20	0.07672	. A
C6	C7	0.08976	. A
C6	H6	0.07263	. A
H3	C18	0.07946	. A
C7	C8	0.10102	. A
C7	H5	0.07256	. A
C8	O1	0.09636	. A
C8	C10	0.10162	. A
C8	H12	0.07319	. A
O1	C12	0.09786	. A
C9	C10	0.10062	. A
C9	H8	0.07314	. A
C9	H9	0.07280	. A
C9	C12	0.10191	. A
C10	H7	0.07292	. A
C10	H10	0.07321	. A
C11	C12	0.10383	. A
C11	O2	0.09771	. A
C11	C14	0.10130	. A
C11	H18	0.07319	. A
H11	C12	0.07315	. A
O2	C16	0.09896	. A
C13	C14	0.10022	. A
C13	H14	0.07267	. A
C13	H15	0.07312	. A
C13	C16	0.10219	. A
C14	H13	0.07259	. A
C14	H16	0.07335	. A
C15	C16	0.10470	. A
C15	C17	0.10242	. A
C15	N2	0.09826	. A
C15	H24	0.07336	. A
H17	C16	0.07315	. A
C17	C18	0.10156	. A
C17	H21	0.07311	. A
C17	H23	0.07318	. A
C18	N1	0.09859	. A
C18	H22	0.07295	. A
N1	N2	0.09629	. A
N1	H20	0.06880	. A
N2	H19	0.06828	. A
