data_tobacco_crystal_2_PM
_symmetry_space_group_name_H-M	'P1'
_cell_length_a	15.000000
_cell_length_b	15.000000
_cell_length_c	15.000000
_cell_angle_alpha	90.000000
_cell_angle_beta	90.000000
_cell_angle_gamma	90.000000
_symmetry_Int_Tables_number 1

loop_
_symmetry_equiv_pos_as_xyz
'x,y,z'

loop_
_atom_site_label
_atom_site_type_symbol
_atom_site_fract_x
_atom_site_fract_y
_atom_site_fract_z
X1	C	0.007116	-0.424939	0.002802
C1	C	-0.069751	-0.379073	0.011802
C2	C	-0.072018	-0.288673	0.011069
C3	C	0.005049	-0.241539	0.000135
C4	C	0.081849	-0.288939	-0.007665
C5	C	0.083249	-0.378539	-0.006665
C6	C	0.016982	-0.144139	-0.002198
C7	C	-0.158084	-0.248739	0.022402
H1	H	-0.132151	-0.415739	0.019935
H2	H	0.147982	-0.409873	-0.014198
H3	H	0.145582	-0.255006	-0.015465
C8	C	-0.043818	-0.079006	-0.009598
C9	C	-0.026818	0.019861	-0.010265
H4	H	-0.114418	-0.093673	-0.015331
H5	H	0.086382	-0.122673	0.001335
C10	C	0.063116	0.058261	0.014802
N1	N	0.035249	0.142727	0.054469
N2	N	-0.048151	0.129394	0.091335
N3	N	-0.083951	0.060927	0.058735
C11	C	0.043516	0.224261	0.001469
H6	H	0.109649	0.066861	-0.040598
H7	H	0.095716	0.019927	0.067869
H8	H	-0.046884	0.045794	-0.075798
N4	N	-0.229284	-0.219206	0.030602
O1	O	0.106516	0.284994	0.040202
C12	C	-0.009684	0.373461	-0.017198
C13	C	-0.041684	0.278527	-0.009531
H9	H	-0.080551	0.256194	-0.067065
H10	H	-0.041218	0.413794	0.035069
H11	H	-0.027284	0.403594	-0.081265
H12	H	-0.085484	0.274927	0.048802
H13	H	0.122849	0.362127	-0.070598
C14	C	0.090982	0.367994	-0.004865
H14	H	0.069449	0.206127	-0.064531

loop_
_geom_bond_atom_site_label_1
_geom_bond_atom_site_label_2
_geom_bond_distance
_ccdc_geom_bond_type
X1	C1	0.08996	. A
X1	C5	0.08966	. A
C1	C2	0.09043	. A
C1	H1	0.07283	. A
C2	C3	0.09100	. A
C2	C7	0.09555	. A
C3	C4	0.09059	. A
C3	C6	0.09816	. A
C4	C5	0.08962	. A
C4	H3	0.07262	. A
C5	H2	0.07231	. A
C6	C8	0.08941	. A
C6	H5	0.07273	. A
C7	N4	0.07752	. A
C8	C9	0.10032	. A
C8	H4	0.07233	. A
C9	C10	0.10095	. A
C9	N3	0.09855	. A
C9	H8	0.07328	. A
C10	N1	0.09739	. A
C10	H6	0.07286	. A
C10	H7	0.07313	. A
N1	N2	0.09215	. A
N1	C11	0.09760	. A
N2	N3	0.08386	. A
C11	O1	0.09570	. A
C11	C13	0.10161	. A
C11	H14	0.07319	. A
O1	C14	0.09571	. A
C12	C13	0.10047	. A
C12	H10	0.07316	. A
C12	H11	0.07295	. A
C12	C14	0.10157	. A
C13	H9	0.07293	. A
C13	H12	0.07304	. A
H13	C14	0.07329	. A
