data_tobacco_crystal_2_PM
_symmetry_space_group_name_H-M	'P1'
_cell_length_a	15.000000
_cell_length_b	15.000000
_cell_length_c	15.000000
_cell_angle_alpha	90.000000
_cell_angle_beta	90.000000
_cell_angle_gamma	90.000000
_symmetry_Int_Tables_number 1

loop_
_symmetry_equiv_pos_as_xyz
'x,y,z'

loop_
_atom_site_label
_atom_site_type_symbol
_atom_site_fract_x
_atom_site_fract_y
_atom_site_fract_z
X1	C	0.079234	-0.219359	-0.009177
C1	C	-0.000432	-0.175559	-0.008310
C2	C	-0.001032	-0.083559	-0.009777
C3	C	0.077768	-0.037959	-0.003377
C4	C	0.154834	-0.084025	0.001756
C5	C	0.156168	-0.173159	-0.003644
N1	N	0.085434	0.052975	-0.013177
C6	C	-0.087966	-0.032092	-0.028777
C7	C	-0.088632	-0.225359	-0.007977
H1	H	0.221168	-0.204825	-0.006644
H2	H	0.217901	-0.047959	0.004756
H3	H	-0.127232	-0.210825	-0.068044
H4	H	-0.083032	-0.297292	-0.001577
H5	H	-0.126766	-0.206159	0.051290
N2	N	0.045034	0.102775	0.039890
C8	C	0.025901	0.187575	-0.005444
C9	C	0.100901	0.253108	0.001556
N3	N	0.049701	0.333975	0.003890
N4	N	-0.036499	0.319375	0.028956
N5	N	-0.050099	0.236508	0.033556
H6	H	0.138901	0.248041	0.063690
H7	H	0.146634	0.251575	-0.055244
H8	H	0.009168	0.175175	-0.075844
C10	C	-0.164232	-0.036692	0.038290
H9	H	-0.203899	0.024641	0.035023
H10	H	-0.141099	-0.045292	0.106823
H11	H	-0.210232	-0.090825	0.021423
H12	H	-0.112566	-0.053425	-0.094377
H13	H	-0.075032	0.038641	-0.039510

loop_
_geom_bond_atom_site_label_1
_geom_bond_atom_site_label_2
_geom_bond_distance
_ccdc_geom_bond_type
X1	C1	0.09092	. A
X1	C5	0.08991	. A
C1	C2	0.09201	. A
C1	C7	0.10129	. A
C2	C3	0.09127	. A
C2	C6	0.10280	. A
C3	C4	0.08993	. A
C3	N1	0.09178	. A
C4	C5	0.08931	. A
C4	H2	0.07271	. A
C5	H1	0.07237	. A
N1	N2	0.08324	. A
C6	C10	0.10166	. A
C6	H12	0.07324	. A
C6	H13	0.07270	. A
C7	H3	0.07286	. A
C7	H4	0.07243	. A
C7	H5	0.07304	. A
N2	C8	0.09804	. A
C8	C9	0.09984	. A
C8	N5	0.09845	. A
C8	H8	0.07342	. A
C9	N3	0.09574	. A
C9	H6	0.07301	. A
C9	H7	0.07294	. A
N3	N4	0.09095	. A
N4	N5	0.08410	. A
C10	H9	0.07312	. A
C10	H10	0.07284	. A
C10	H11	0.07301	. A
