data_tobacco_crystal_2_PM
_symmetry_space_group_name_H-M	'P1'
_cell_length_a	15.000000
_cell_length_b	15.000000
_cell_length_c	15.000000
_cell_angle_alpha	90.000000
_cell_angle_beta	90.000000
_cell_angle_gamma	90.000000
_symmetry_Int_Tables_number 1

loop_
_symmetry_equiv_pos_as_xyz
'x,y,z'

loop_
_atom_site_label
_atom_site_type_symbol
_atom_site_fract_x
_atom_site_fract_y
_atom_site_fract_z
X1	C	0.003521	-0.384798	-0.009699
C1	C	-0.078679	-0.348198	-0.009432
C2	C	-0.089279	-0.259198	-0.008366
C3	C	-0.018479	-0.202931	-0.006766
C4	C	0.063721	-0.239998	-0.011232
C5	C	0.074788	-0.329531	-0.012499
C6	C	-0.032279	-0.104265	0.013834
H1	H	-0.157279	-0.234598	-0.004232
H2	H	-0.138145	-0.389865	-0.007099
H3	H	0.142721	-0.353998	-0.012899
H4	H	0.122188	-0.197131	-0.009499
O1	O	0.022721	-0.034665	-0.027032
C7	C	-0.113079	0.032869	0.011968
C8	C	-0.126745	-0.067065	0.007034
C9	C	0.019855	0.139602	0.005034
H5	H	-0.169479	-0.091198	0.061101
H6	H	-0.146612	0.062735	0.069434
H7	H	-0.140879	0.063069	-0.048499
H8	H	-0.158345	-0.084598	-0.056566
H9	H	0.007788	0.031669	0.088101
C10	C	-0.011812	0.043669	0.018501
H10	H	-0.013945	-0.102531	0.084968
C11	C	0.114255	0.164869	-0.017499
N1	N	0.096655	0.254602	-0.049832
N2	N	0.009255	0.263069	-0.077232
N3	N	-0.031812	0.191535	-0.061099
N4	N	0.142588	0.328069	-0.019832
H11	H	0.159055	0.164669	0.039968
H12	H	0.142255	0.126735	-0.072966
H13	H	0.004255	0.171869	0.069234
N5	N	0.091521	0.377069	0.024101
C12	C	0.108855	0.464469	0.016901
C13	C	0.100855	0.544002	0.012101

loop_
_geom_bond_atom_site_label_1
_geom_bond_atom_site_label_2
_geom_bond_distance
_ccdc_geom_bond_type
X1	C1	0.08998	. A
X1	C5	0.09023	. A
X1	C13	0.12255	. A
C1	C2	0.08964	. A
C1	H2	0.07265	. A
C2	C3	0.09045	. A
C2	H1	0.07243	. A
C3	C4	0.09028	. A
C3	C6	0.10173	. A
C4	C5	0.09022	. A
C4	H4	0.07252	. A
C5	H3	0.07221	. A
C6	O1	0.09767	. A
C6	C8	0.10175	. A
C6	H10	0.07348	. A
O1	C10	0.09696	. A
C7	C8	0.10098	. A
C7	H6	0.07293	. A
C7	H7	0.07308	. A
C7	C10	0.10205	. A
C8	H5	0.07302	. A
C8	H8	0.07315	. A
C9	C10	0.10192	. A
C9	C11	0.10029	. A
C9	N3	0.09869	. A
C9	H13	0.07353	. A
H9	C10	0.07330	. A
C11	N1	0.09699	. A
C11	H11	0.07287	. A
C11	H12	0.07290	. A
N1	N2	0.09198	. A
N1	N4	0.09169	. A
N2	N3	0.08405	. A
N4	N5	0.08330	. A
N5	C12	0.08939	. A
C12	C13	0.08008	. A
