data_tobacco_crystal_2_PM
_symmetry_space_group_name_H-M	'P1'
_cell_length_a	15.000000
_cell_length_b	15.000000
_cell_length_c	15.000000
_cell_angle_alpha	90.000000
_cell_angle_beta	90.000000
_cell_angle_gamma	90.000000
_symmetry_Int_Tables_number 1

loop_
_symmetry_equiv_pos_as_xyz
'x,y,z'

loop_
_atom_site_label
_atom_site_type_symbol
_atom_site_fract_x
_atom_site_fract_y
_atom_site_fract_z
X1	C	0.008836	-0.355937	0.029699
C1	C	-0.069430	-0.312204	0.038366
C2	C	-0.071497	-0.222471	0.037766
C3	C	0.003903	-0.173471	0.027766
C4	C	0.082036	-0.218537	0.027499
C5	C	0.085036	-0.307871	0.026566
C6	C	0.002703	-0.076737	0.011432
H1	H	-0.137297	-0.192404	0.042366
H2	H	-0.132230	-0.348404	0.042499
N1	N	0.171436	-0.348671	0.015632
H3	H	0.144570	-0.182737	0.023299
H4	H	0.221236	-0.303737	0.029232
H5	H	0.180236	-0.359071	-0.051634
C7	C	-0.073697	-0.036871	-0.016234
C8	C	-0.078764	0.050263	-0.035768
C9	C	-0.006030	0.103529	-0.027434
C10	C	0.071836	0.063796	-0.005634
C11	C	0.075903	-0.023804	0.012766
C12	C	-0.009697	0.203329	-0.040301
Cl1	Cl	-0.181830	0.084729	-0.076634
H6	H	-0.135097	-0.074871	-0.023368
H7	H	0.141703	-0.049471	0.028432
H8	H	0.133170	0.102596	-0.002968
O1	O	0.064370	0.252596	-0.000501
C13	C	-0.061497	0.343463	0.008699
C14	C	-0.088164	0.247463	0.005899
H9	H	-0.151564	0.241863	-0.028834
H10	H	-0.096964	0.382596	-0.041568
H11	H	-0.077964	0.371463	0.074232
H12	H	-0.096230	0.221463	0.073966
H13	H	0.051036	0.357329	-0.081901
C15	C	0.038303	0.343463	-0.011168
H14	H	-0.008364	0.217329	-0.112168

loop_
_geom_bond_atom_site_label_1
_geom_bond_atom_site_label_2
_geom_bond_distance
_ccdc_geom_bond_type
X1	C1	0.09007	. A
X1	C5	0.09015	. A
C1	C2	0.08976	. A
C1	H2	0.07260	. A
C2	C3	0.09048	. A
C2	H1	0.07249	. A
C3	C4	0.09020	. A
C3	C6	0.09811	. A
C4	C5	0.08939	. A
C4	H3	0.07218	. A
C5	N1	0.09617	. A
C6	C7	0.09051	. A
C6	C11	0.09034	. A
N1	H4	0.06844	. A
N1	H5	0.06863	. A
C7	C8	0.08944	. A
C7	H6	0.07256	. A
C8	C9	0.09054	. A
C8	Cl1	0.11611	. A
C9	C10	0.09010	. A
C9	C12	0.10069	. A
C10	C11	0.08960	. A
C10	H8	0.07262	. A
C11	H7	0.07235	. A
C12	O1	0.09745	. A
C12	C14	0.10119	. A
C12	H14	0.07323	. A
O1	C15	0.09513	. A
C13	C14	0.09967	. A
C13	H10	0.07291	. A
C13	H11	0.07314	. A
C13	C15	0.10176	. A
C14	H9	0.07251	. A
C14	H12	0.07331	. A
H13	C15	0.07320	. A
