data_tobacco_crystal_2_PM
_symmetry_space_group_name_H-M	'P1'
_cell_length_a	15.000000
_cell_length_b	15.000000
_cell_length_c	15.000000
_cell_angle_alpha	90.000000
_cell_angle_beta	90.000000
_cell_angle_gamma	90.000000
_symmetry_Int_Tables_number 1

loop_
_symmetry_equiv_pos_as_xyz
'x,y,z'

loop_
_atom_site_label
_atom_site_type_symbol
_atom_site_fract_x
_atom_site_fract_y
_atom_site_fract_z
X1	C	-0.022938	-0.268646	-0.004156
C1	C	-0.100805	-0.227046	-0.023956
C2	C	-0.103138	-0.138979	-0.040356
C3	C	-0.028138	-0.089913	-0.036556
C4	C	0.049862	-0.129713	-0.012756
C5	C	0.052395	-0.219313	0.001777
C6	C	-0.029072	0.004621	-0.059023
H1	H	-0.166738	-0.108246	-0.057623
H2	H	-0.162938	-0.264713	-0.027890
Cl1	Cl	0.155128	-0.266979	0.029177
C7	C	0.131795	-0.035913	0.079577
H3	H	0.200662	-0.015513	0.091577
H4	H	0.110595	-0.079779	0.133977
H5	H	0.090795	0.024287	0.079577
O1	O	0.127928	-0.079246	-0.005423
C8	C	-0.065738	0.069287	-0.009090
C9	C	-0.055405	0.166287	-0.031223
H6	H	-0.102272	0.052554	0.051244
H7	H	0.009795	0.021821	-0.118023
C10	C	0.033195	0.207554	-0.006756
N1	N	0.003062	0.295554	0.016244
N2	N	-0.085072	0.296554	0.038444
N3	N	-0.118672	0.221287	0.021177
H8	H	0.081928	0.208287	-0.060890
H9	H	0.063662	0.178287	0.052977
H10	H	-0.069872	0.177621	-0.102023

loop_
_geom_bond_atom_site_label_1
_geom_bond_atom_site_label_2
_geom_bond_distance
_ccdc_geom_bond_type
X1	C1	0.09048	. A
X1	C5	0.09024	. A
C1	C2	0.08961	. A
C1	H2	0.07277	. A
C2	C3	0.08970	. A
C2	H1	0.07272	. A
C3	C4	0.09074	. A
C3	C6	0.09717	. A
C4	C5	0.09081	. A
C4	O1	0.09325	. A
C5	Cl1	0.11652	. A
C6	C8	0.08955	. A
C6	H7	0.07271	. A
C7	H3	0.07282	. A
C7	H4	0.07303	. A
C7	H5	0.07284	. A
C7	O1	0.09549	. A
C8	C9	0.10003	. A
C8	H6	0.07249	. A
C9	C10	0.10075	. A
C9	N3	0.09886	. A
C9	H10	0.07315	. A
C10	N1	0.09582	. A
C10	H8	0.07284	. A
C10	H9	0.07316	. A
N1	N2	0.09089	. A
N2	N3	0.08422	. A
