data_tobacco_crystal_2_PM
_symmetry_space_group_name_H-M	'P1'
_cell_length_a	15.000000
_cell_length_b	15.000000
_cell_length_c	15.000000
_cell_angle_alpha	90.000000
_cell_angle_beta	90.000000
_cell_angle_gamma	90.000000
_symmetry_Int_Tables_number 1

loop_
_symmetry_equiv_pos_as_xyz
'x,y,z'

loop_
_atom_site_label
_atom_site_type_symbol
_atom_site_fract_x
_atom_site_fract_y
_atom_site_fract_z
X1	C	0.019588	-0.514891	-0.003321
C1	C	-0.060012	-0.473158	-0.007721
C2	C	-0.064746	-0.383558	-0.013854
C3	C	0.009521	-0.331758	-0.017054
C4	C	0.088788	-0.375625	-0.014988
C5	C	0.094254	-0.464958	-0.007054
C6	C	0.004988	-0.231958	-0.016721
H1	H	-0.131146	-0.354491	-0.014054
H2	H	-0.121746	-0.511425	-0.004254
H3	H	0.160388	-0.493558	-0.001721
H4	H	0.151521	-0.339825	-0.017788
C7	C	-0.068946	-0.185691	-0.040788
C8	C	-0.074079	-0.096491	-0.030921
C9	C	-0.005679	-0.048091	0.003079
C10	C	0.070388	-0.092625	0.022612
C11	C	0.074588	-0.181891	0.012879
C12	C	-0.014412	0.049975	0.029479
H5	H	-0.136812	-0.064358	-0.047854
H6	H	-0.127812	-0.219491	-0.065854
H7	H	0.135854	-0.213891	0.033812
O1	O	0.143188	-0.046891	0.055612
C13	C	0.044254	0.122775	-0.011521
C14	C	-0.000879	0.207509	0.024879
N1	N	-0.095946	0.181842	0.035279
N2	N	-0.103346	0.088642	0.013812
C15	C	0.014121	0.294709	-0.029054
H8	H	-0.148079	0.057709	0.054946
H9	H	-0.135946	0.218375	-0.005921
H10	H	0.113721	0.118442	0.010679
H11	H	0.025721	0.218642	0.092346
H12	H	0.042921	0.120309	-0.084588
H13	H	-0.003812	0.050975	0.102212
O2	O	0.093921	0.341375	-0.000388
C16	C	-0.017279	0.450242	-0.022588
C17	C	-0.061946	0.361375	-0.015854
H14	H	-0.115346	0.352775	-0.064788
H15	H	-0.008346	0.468909	-0.092654
H16	H	-0.055212	0.503175	0.010279
H17	H	-0.090946	0.355442	0.051012
H18	H	0.065054	0.433775	0.094946
C18	C	0.071454	0.431842	0.022146
H19	H	0.022388	0.280042	-0.100188
H20	H	0.195854	-0.084225	0.061479

loop_
_geom_bond_atom_site_label_1
_geom_bond_atom_site_label_2
_geom_bond_distance
_ccdc_geom_bond_type
X1	C1	0.08998	. A
X1	C5	0.08990	. A
X1	C16	0.05428	. A
X1	H15	0.09499	. A
X1	H16	0.07814	. A
X1	H18	0.11983	. A
X1	C18	0.07859	. A
C1	C2	0.08993	. A
C1	H2	0.07271	. A
C1	C16	0.08896	. A
C1	H15	0.11506	. A
C1	H16	0.03012	. A
C2	C3	0.09060	. A
C2	H1	0.07248	. A
C2	H16	0.11620	. A
C3	C4	0.09062	. A
C3	C6	0.09990	. A
C4	C5	0.08985	. A
C4	H4	0.07228	. A
C5	H3	0.07225	. A
C5	C18	0.10965	. A
C6	C7	0.09048	. A
C6	C11	0.09070	. A
H2	H16	0.06965	. A
C7	C8	0.08989	. A
C7	H6	0.07236	. A
C8	C9	0.09043	. A
C8	H5	0.07249	. A
C9	C10	0.09028	. A
C9	C12	0.10193	. A
C10	C11	0.08989	. A
C10	O1	0.09209	. A
C11	H7	0.07222	. A
C12	C13	0.10209	. A
C12	N2	0.09823	. A
C12	H13	0.07351	. A
O1	H20	0.06482	. A
C13	C14	0.10267	. A
C13	H10	0.07306	. A
C13	H12	0.07312	. A
C14	N1	0.09902	. A
C14	C15	0.10362	. A
C14	H11	0.07337	. A
N1	N2	0.09593	. A
N1	H9	0.06806	. A
N2	H8	0.06819	. A
C15	O2	0.09679	. A
C15	C17	0.10200	. A
C15	H19	0.07310	. A
O2	C18	0.09590	. A
C16	C17	0.09969	. A
C16	H15	0.07306	. A
C16	H16	0.07295	. A
C16	C18	0.10106	. A
C17	H14	0.07294	. A
C17	H17	0.07313	. A
H18	C18	0.07311	. A
