data_tobacco_crystal_2_PM
_symmetry_space_group_name_H-M	'P1'
_cell_length_a	15.000000
_cell_length_b	15.000000
_cell_length_c	15.000000
_cell_angle_alpha	90.000000
_cell_angle_beta	90.000000
_cell_angle_gamma	90.000000
_symmetry_Int_Tables_number 1

loop_
_symmetry_equiv_pos_as_xyz
'x,y,z'

loop_
_atom_site_label
_atom_site_type_symbol
_atom_site_fract_x
_atom_site_fract_y
_atom_site_fract_z
X1	C	0.029372	-0.376889	0.006372
C1	C	-0.050761	-0.343489	0.027905
C2	C	-0.062961	-0.254823	0.029972
C3	C	0.002839	-0.195223	0.009839
C4	C	0.083905	-0.230689	-0.014961
C5	C	0.095305	-0.320556	-0.016028
C6	C	-0.018495	-0.096623	0.013905
H1	H	-0.129161	-0.232223	0.048972
H2	H	-0.106028	-0.387689	0.043839
H3	H	0.159172	-0.347956	-0.036828
C7	C	0.164972	-0.178423	-0.045361
H4	H	0.199972	-0.149489	0.011772
H5	H	0.214305	-0.221089	-0.078561
H6	H	0.147439	-0.126889	-0.093828
C8	C	-0.101628	-0.063889	-0.000695
C9	C	-0.118895	0.024644	-0.002495
C10	C	-0.052828	0.085444	0.009172
C11	C	0.029639	0.054511	0.030639
C12	C	0.044039	-0.034489	0.033772
C13	C	-0.069895	0.184111	-0.009428
H7	H	-0.186561	0.045844	-0.015695
H8	H	-0.157828	-0.107823	-0.013761
H9	H	0.109572	-0.056089	0.053305
C14	C	0.184439	0.103911	0.019305
O1	O	-0.011961	0.244911	0.036705
C15	C	-0.137828	0.326844	-0.005161
C16	C	-0.160361	0.227911	0.005105
H10	H	-0.185428	0.215711	0.072639
H11	H	-0.156361	0.351177	-0.071628
H12	H	-0.173961	0.367577	0.043372
H13	H	-0.211028	0.206377	-0.042761
H14	H	-0.005495	0.338911	-0.060561
C17	C	-0.036495	0.331311	0.005372
H15	H	-0.053761	0.190844	-0.080761
H16	H	0.228039	0.139177	0.065972
H17	H	0.191839	0.135177	-0.046228
H18	H	0.206839	0.034777	0.016239
O2	O	0.096039	0.115177	0.050572

loop_
_geom_bond_atom_site_label_1
_geom_bond_atom_site_label_2
_geom_bond_distance
_ccdc_geom_bond_type
X1	C1	0.08945	. A
X1	C5	0.08957	. A
C1	C2	0.08953	. A
C1	H2	0.07254	. A
C2	C3	0.09103	. A
C2	H1	0.07249	. A
C3	C4	0.09190	. A
C3	C6	0.10096	. A
C4	C5	0.09059	. A
C4	C7	0.10113	. A
C5	H3	0.07254	. A
C6	C8	0.09053	. A
C6	C12	0.09036	. A
C7	H4	0.07298	. A
C7	H5	0.07319	. A
C7	H6	0.07288	. A
C8	C9	0.09022	. A
C8	H8	0.07252	. A
C9	C10	0.09054	. A
C9	H7	0.07213	. A
C10	C11	0.09066	. A
C10	C13	0.10184	. A
C11	C12	0.09021	. A
C11	O2	0.09212	. A
C12	H9	0.07171	. A
C13	O1	0.09582	. A
C13	C16	0.10156	. A
C13	H15	0.07344	. A
C14	H16	0.07296	. A
C14	H17	0.07299	. A
C14	H18	0.07274	. A
C14	O2	0.09444	. A
O1	C17	0.09512	. A
C15	C16	0.10199	. A
C15	H11	0.07317	. A
C15	H12	0.07294	. A
C15	C17	0.10198	. A
C16	H10	0.07306	. A
C16	H13	0.07295	. A
H14	C17	0.07325	. A
