data_tobacco_crystal_2_PM
_symmetry_space_group_name_H-M	'P1'
_cell_length_a	15.000000
_cell_length_b	15.000000
_cell_length_c	15.000000
_cell_angle_alpha	90.000000
_cell_angle_beta	90.000000
_cell_angle_gamma	90.000000
_symmetry_Int_Tables_number 1

loop_
_symmetry_equiv_pos_as_xyz
'x,y,z'

loop_
_atom_site_label
_atom_site_type_symbol
_atom_site_fract_x
_atom_site_fract_y
_atom_site_fract_z
X1	C	-0.005467	-0.397185	-0.003202
C1	C	-0.078800	-0.344785	-0.000202
C2	C	-0.071600	-0.254719	0.001864
C3	C	0.008667	-0.213119	0.001131
C4	C	0.082000	-0.267119	-0.001469
C5	C	0.074867	-0.356985	-0.003736
C6	C	0.016733	-0.114119	0.001198
H1	H	-0.133600	-0.217585	0.003264
H2	H	-0.144867	-0.374985	-0.000202
H3	H	0.136133	-0.395252	-0.006736
Cl1	Cl	0.191000	-0.225785	-0.002802
C7	C	-0.046600	-0.050452	0.003931
C8	C	-0.026267	0.043548	-0.002802
H4	H	-0.116800	-0.067385	0.008131
H5	H	0.084667	-0.089185	-0.002869
C9	C	-0.015867	0.122615	-0.014402
C10	C	-0.012333	0.219348	-0.038269
C11	C	0.072733	0.268548	-0.013202
C12	C	0.043733	0.356148	0.029064
N1	N	-0.054133	0.352881	0.037264
N2	N	-0.086533	0.269348	0.001464
H6	H	-0.115600	0.232281	0.050864
H7	H	-0.080667	0.407348	0.004864
H8	H	0.113133	0.230681	0.034464
H9	H	0.072133	0.362615	0.096064
H10	H	0.113600	0.279748	-0.072802
H11	H	-0.020267	0.223548	-0.110869

loop_
_geom_bond_atom_site_label_1
_geom_bond_atom_site_label_2
_geom_bond_distance
_ccdc_geom_bond_type
X1	C1	0.09018	. A
X1	C5	0.08983	. A
C1	C2	0.09038	. A
C1	H2	0.07264	. A
C2	C3	0.09041	. A
C2	H1	0.07228	. A
C3	C4	0.09111	. A
C3	C6	0.09933	. A
C4	C5	0.09018	. A
C4	Cl1	0.11658	. A
C5	H3	0.07230	. A
C6	C7	0.08984	. A
C6	H5	0.07248	. A
C7	C8	0.09641	. A
C7	H4	0.07234	. A
C8	C9	0.08059	. A
C9	C10	0.09970	. A
C10	C11	0.10142	. A
C10	N2	0.09790	. A
C10	H11	0.07315	. A
C11	C12	0.10149	. A
C11	H8	0.07306	. A
C11	H10	0.07313	. A
C12	N1	0.09826	. A
C12	H9	0.07306	. A
N1	N2	0.09648	. A
N1	H7	0.06871	. A
N2	H6	0.06826	. A
