data_tobacco_crystal_2_PM
_symmetry_space_group_name_H-M	'P1'
_cell_length_a	15.000000
_cell_length_b	15.000000
_cell_length_c	15.000000
_cell_angle_alpha	90.000000
_cell_angle_beta	90.000000
_cell_angle_gamma	90.000000
_symmetry_Int_Tables_number 1

loop_
_symmetry_equiv_pos_as_xyz
'x,y,z'

loop_
_atom_site_label
_atom_site_type_symbol
_atom_site_fract_x
_atom_site_fract_y
_atom_site_fract_z
X1	C	-0.040024	-0.236967	0.008238
C1	C	-0.114158	-0.184300	-0.003029
C2	C	-0.106291	-0.094700	-0.009362
C3	C	-0.026824	-0.054100	-0.005762
C4	C	0.045176	-0.106433	0.000104
C5	C	0.042776	-0.196900	0.006704
C6	C	-0.013358	0.041900	-0.009362
H1	H	-0.166291	-0.054700	-0.016296
Br1	Br	-0.235091	-0.223233	-0.012762
C7	C	0.139842	-0.228967	0.013171
H2	H	0.109576	-0.072567	0.002038
C8	C	-0.075691	0.104633	0.002771
C9	C	-0.061291	0.200433	0.002704
H3	H	-0.144291	0.084233	0.014571
H4	H	0.055376	0.062433	-0.020029
C10	C	-0.134424	0.253700	0.004438
C11	C	-0.126691	0.342500	0.005238
C12	C	-0.045091	0.380700	0.004638
C13	C	0.028442	0.328967	0.003771
C14	C	0.020109	0.239367	0.003238
H5	H	-0.187158	0.382967	0.006171
H6	H	-0.200824	0.224967	0.004371
H7	H	0.080976	0.200367	0.003504
H8	H	0.094642	0.358300	0.004238
C15	C	0.171509	-0.321433	-0.010096
H9	H	0.148442	-0.340967	-0.076362
H10	H	0.151842	-0.369100	0.041171
H11	H	0.244509	-0.322233	-0.013496
H12	H	0.178576	-0.187567	-0.033962
H13	H	0.165709	-0.211300	0.079438

loop_
_geom_bond_atom_site_label_1
_geom_bond_atom_site_label_2
_geom_bond_distance
_ccdc_geom_bond_type
X1	C1	0.09163	. A
X1	C5	0.09200	. A
C1	C2	0.09017	. A
C2	C3	0.08931	. A
C2	H1	0.07244	. A
C3	C4	0.08920	. A
C3	C6	0.09701	. A
C4	C5	0.09074	. A
C4	H2	0.07279	. A
C5	C7	0.10243	. A
C6	C8	0.08926	. A
C6	H4	0.07252	. A
C7	C15	0.10047	. A
C7	H12	0.07373	. A
C7	H13	0.07330	. A
C8	C9	0.09688	. A
C8	H3	0.07254	. A
C9	C10	0.09049	. A
C9	C14	0.09023	. A
C10	C11	0.08914	. A
C10	H6	0.07235	. A
C11	C12	0.09010	. A
C11	H5	0.07276	. A
C12	C13	0.08991	. A
C13	C14	0.08999	. A
C13	H8	0.07241	. A
C14	H7	0.07229	. A
C15	H9	0.07283	. A
C15	H10	0.07271	. A
C15	H11	0.07308	. A
