data_tobacco_crystal_2_PM
_symmetry_space_group_name_H-M	'P1'
_cell_length_a	15.000000
_cell_length_b	15.000000
_cell_length_c	15.000000
_cell_angle_alpha	90.000000
_cell_angle_beta	90.000000
_cell_angle_gamma	90.000000
_symmetry_Int_Tables_number 1

loop_
_symmetry_equiv_pos_as_xyz
'x,y,z'

loop_
_atom_site_label
_atom_site_type_symbol
_atom_site_fract_x
_atom_site_fract_y
_atom_site_fract_z
X1	C	-0.006802	-0.382778	0.003237
C1	C	-0.083869	-0.335711	0.005504
C2	C	-0.084269	-0.245578	0.010904
C3	C	-0.005669	-0.200778	0.014370
C4	C	0.071131	-0.247844	0.012104
C5	C	0.070931	-0.337578	0.006504
C6	C	-0.000536	-0.104911	0.016904
Br1	Br	-0.196136	-0.187378	0.011970
H1	H	-0.147269	-0.371111	0.002370
H2	H	0.135331	-0.370178	0.004170
H3	H	0.134731	-0.212978	0.014037
C7	C	0.001198	-0.024711	0.009104
C8	C	-0.006402	0.068689	-0.018563
C9	C	0.068398	0.133089	0.004104
C10	C	0.024931	0.220889	-0.025830
N1	N	-0.070002	0.210089	-0.001030
N2	N	-0.081869	0.115489	0.022304
C11	C	0.066198	0.308622	0.000904
H4	H	-0.140602	0.090689	-0.001830
H5	H	-0.083336	0.248289	0.054037
H6	H	0.084531	0.133289	0.075504
H7	H	0.027864	0.221022	-0.099163
H8	H	0.129531	0.118622	-0.033230
H9	H	-0.016202	0.068089	-0.091496
C12	C	0.020598	0.386022	0.003037
H10	H	-0.050469	0.388756	-0.010230
H11	H	0.138064	0.309889	0.010304

loop_
_geom_bond_atom_site_label_1
_geom_bond_atom_site_label_2
_geom_bond_distance
_ccdc_geom_bond_type
X1	C1	0.09033	. A
X1	C5	0.08998	. A
C1	C2	0.09030	. A
C1	H1	0.07268	. A
C2	C3	0.09054	. A
C2	Br1	0.12611	. A
C3	C4	0.09010	. A
C3	C6	0.09604	. A
C4	C5	0.08991	. A
C4	H3	0.07256	. A
C5	H2	0.07222	. A
C6	C7	0.08060	. A
C7	C8	0.09771	. A
C8	C9	0.10127	. A
C8	N2	0.09775	. A
C8	H9	0.07359	. A
C9	C10	0.10244	. A
C9	H6	0.07320	. A
C9	H8	0.07308	. A
C10	N1	0.09871	. A
C10	C11	0.10057	. A
C10	H7	0.07339	. A
N1	N2	0.09816	. A
N1	H5	0.06833	. A
N2	H4	0.06817	. A
C11	C12	0.08986	. A
C11	H11	0.07249	. A
C12	H10	0.07235	. A
