data_tobacco_crystal_2_PM
_symmetry_space_group_name_H-M	'P1'
_cell_length_a	15.000000
_cell_length_b	15.000000
_cell_length_c	15.000000
_cell_angle_alpha	90.000000
_cell_angle_beta	90.000000
_cell_angle_gamma	90.000000
_symmetry_Int_Tables_number 1

loop_
_symmetry_equiv_pos_as_xyz
'x,y,z'

loop_
_atom_site_label
_atom_site_type_symbol
_atom_site_fract_x
_atom_site_fract_y
_atom_site_fract_z
X1	C	0.010437	-0.380206	-0.020573
C1	C	-0.060296	-0.334406	-0.050506
C2	C	-0.063563	-0.245206	-0.041506
C3	C	0.002637	-0.197873	-0.001573
C4	C	0.076171	-0.244739	0.025027
C5	C	0.079304	-0.334873	0.015827
C6	C	-0.014096	-0.100673	0.029027
H1	H	-0.124763	-0.214006	-0.064039
H2	H	-0.117296	-0.369339	-0.079239
H3	H	0.136437	-0.370473	0.041894
Br1	Br	0.175237	-0.189739	0.080294
O1	O	0.032571	-0.025606	-0.012039
C7	C	-0.105029	0.030061	0.037361
C8	C	-0.111163	-0.069873	0.028294
C9	C	0.012104	0.149461	0.010161
H4	H	-0.150629	-0.100873	0.081227
H5	H	-0.137163	0.055661	0.097494
H6	H	-0.140029	0.058594	-0.019973
H7	H	-0.143896	-0.083539	-0.035506
H8	H	0.021304	0.044194	0.103894
C10	C	-0.005029	0.050394	0.035694
H9	H	0.005904	-0.100339	0.099694
C11	C	0.106371	0.182994	-0.006306
C12	C	0.091637	0.273261	-0.053173
N1	N	-0.002629	0.272994	-0.081439
N2	N	-0.034629	0.182994	-0.068973
N3	N	0.113837	0.349194	0.006694
H10	H	-0.102229	0.181861	-0.060506
H11	H	-0.033896	0.317727	-0.040173
H12	H	0.144371	0.189327	0.055694
H13	H	0.134637	0.277994	-0.112039
H14	H	0.142104	0.137727	-0.051306
H15	H	-0.013963	0.187527	0.067427
N4	N	0.075237	0.419794	-0.016839

loop_
_geom_bond_atom_site_label_1
_geom_bond_atom_site_label_2
_geom_bond_distance
_ccdc_geom_bond_type
X1	C1	0.08943	. A
X1	C5	0.09013	. A
C1	C2	0.08971	. A
C1	H2	0.07277	. A
C2	C3	0.09065	. A
C2	H1	0.07230	. A
C3	C4	0.09117	. A
C3	C6	0.10327	. A
C4	C5	0.09066	. A
C4	Br1	0.12607	. A
C5	H3	0.07219	. A
C6	O1	0.09746	. A
C6	C8	0.10184	. A
C6	H9	0.07344	. A
O1	C10	0.09730	. A
C7	C8	0.10053	. A
C7	H5	0.07283	. A
C7	H6	0.07298	. A
C7	C10	0.10206	. A
C8	H4	0.07294	. A
C8	H7	0.07300	. A
C9	C10	0.10373	. A
C9	C11	0.10140	. A
C9	N2	0.09783	. A
C9	H15	0.07354	. A
H8	C10	0.07337	. A
C11	C12	0.10277	. A
C11	H12	0.07299	. A
C11	H14	0.07315	. A
C12	N1	0.09841	. A
C12	N3	0.09921	. A
C12	H13	0.07305	. A
N1	N2	0.09633	. A
N1	H11	0.06842	. A
N2	H10	0.06814	. A
N3	N4	0.08383	. A
