data_tobacco_crystal_2_PM
_symmetry_space_group_name_H-M	'P1'
_cell_length_a	15.000000
_cell_length_b	15.000000
_cell_length_c	15.000000
_cell_angle_alpha	90.000000
_cell_angle_beta	90.000000
_cell_angle_gamma	90.000000
_symmetry_Int_Tables_number 1

loop_
_symmetry_equiv_pos_as_xyz
'x,y,z'

loop_
_atom_site_label
_atom_site_type_symbol
_atom_site_fract_x
_atom_site_fract_y
_atom_site_fract_z
X1	C	-0.024370	-0.294316	-0.014037
C1	C	-0.097037	-0.244716	-0.032237
C2	C	-0.093770	-0.155249	-0.026237
C3	C	-0.018770	-0.110983	-0.000570
C4	C	0.054763	-0.162183	0.014296
C5	C	0.051963	-0.252049	0.007696
C6	C	-0.023637	-0.010583	0.019230
H1	H	-0.155637	-0.119849	-0.039237
H2	H	-0.160037	-0.276716	-0.049570
H3	H	0.111763	-0.288916	0.025030
N1	N	0.138696	-0.126249	0.041630
H4	H	0.169230	-0.098516	-0.012704
H5	H	0.131030	-0.072983	0.082963
C7	C	0.043763	0.057284	-0.017104
C8	C	0.002496	0.142551	0.019296
N2	N	-0.093904	0.130017	0.005763
N3	N	-0.107904	0.034284	-0.006437
C9	C	0.032563	0.228684	-0.015570
H6	H	-0.158304	0.012351	0.034030
H7	H	-0.112770	0.163284	-0.050970
H8	H	0.111230	0.048417	0.008896
H9	H	0.014096	0.144084	0.091630
H10	H	0.047163	0.056417	-0.090237
H11	H	-0.020437	-0.007516	0.092563
C10	C	0.046830	0.306351	-0.029170
C11	C	0.054896	0.408551	-0.032170
C12	C	0.056096	0.488551	-0.026770

loop_
_geom_bond_atom_site_label_1
_geom_bond_atom_site_label_2
_geom_bond_distance
_ccdc_geom_bond_type
X1	C1	0.08984	. A
X1	C5	0.08992	. A
C1	C2	0.08973	. A
C1	H2	0.07276	. A
C2	C3	0.09079	. A
C2	H1	0.07245	. A
C3	C4	0.09083	. A
C3	C6	0.10245	. A
C4	C5	0.09015	. A
C4	N1	0.09531	. A
C5	H3	0.07236	. A
C6	C7	0.10232	. A
C6	N3	0.09886	. A
C6	H11	0.07347	. A
N1	H4	0.06822	. A
N1	H5	0.06786	. A
C7	C8	0.10148	. A
C7	H8	0.07284	. A
C7	H10	0.07322	. A
C8	N2	0.09815	. A
C8	C9	0.09767	. A
C8	H9	0.07327	. A
N2	N3	0.09752	. A
N2	H7	0.06842	. A
N3	H6	0.06826	. A
C9	C10	0.08013	. A
C10	C11	0.10256	. A
C11	C12	0.08019	. A
