data_tobacco_crystal_2_PM
_symmetry_space_group_name_H-M	'P1'
_cell_length_a	15.000000
_cell_length_b	15.000000
_cell_length_c	15.000000
_cell_angle_alpha	90.000000
_cell_angle_beta	90.000000
_cell_angle_gamma	90.000000
_symmetry_Int_Tables_number 1

loop_
_symmetry_equiv_pos_as_xyz
'x,y,z'

loop_
_atom_site_label
_atom_site_type_symbol
_atom_site_fract_x
_atom_site_fract_y
_atom_site_fract_z
X1	C	0.032886	-0.303781	-0.022821
C1	C	-0.050648	-0.271981	-0.017954
C2	C	-0.068914	-0.184181	-0.007888
C3	C	-0.000048	-0.122848	-0.002421
C4	C	0.085019	-0.155314	-0.009954
C5	C	0.099886	-0.244448	-0.020288
C6	C	-0.016781	-0.022314	0.021246
C7	C	-0.167514	-0.165448	0.000779
H1	H	-0.105514	-0.319248	-0.019954
H2	H	0.168286	-0.266714	-0.025288
C8	C	0.168419	-0.099048	-0.001688
H3	H	-0.208448	-0.225914	-0.003754
H4	H	-0.191514	-0.122648	-0.052888
H5	H	-0.183048	-0.137781	0.066379
H6	H	0.158686	-0.038448	0.037179
H7	H	0.193819	-0.081714	-0.067888
H8	H	0.221019	-0.135781	0.033712
O1	O	0.038686	0.049019	-0.019088
C9	C	-0.096114	0.116419	0.022046
C10	C	-0.109381	0.017752	0.010046
C11	C	0.028486	0.225352	0.004246
H9	H	-0.157714	-0.005648	0.058846
H10	H	-0.127581	0.142219	0.082579
H11	H	-0.127314	0.150086	-0.034754
H12	H	-0.134381	0.006086	-0.057621
H13	H	0.027486	0.119819	0.094446
C12	C	0.004752	0.128286	0.025179
H14	H	-0.000848	-0.020714	0.092979
C13	C	0.119886	0.260086	-0.016288
N1	N	0.091419	0.347752	-0.047954
N2	N	0.008086	0.342619	-0.085754
N3	N	-0.023914	0.266552	-0.069221
H15	H	0.164352	0.264819	0.041179
H16	H	0.152286	0.226086	-0.072088
H17	H	0.006219	0.261019	0.064712

loop_
_geom_bond_atom_site_label_1
_geom_bond_atom_site_label_2
_geom_bond_distance
_ccdc_geom_bond_type
X1	C1	0.08951	. A
X1	C5	0.08953	. A
C1	C2	0.09024	. A
C1	H1	0.07245	. A
C2	C3	0.09238	. A
C2	C7	0.10074	. A
C3	C4	0.09136	. A
C3	C6	0.10463	. A
C4	C5	0.09095	. A
C4	C8	0.10094	. A
C5	H2	0.07211	. A
C6	O1	0.09895	. A
C6	C10	0.10152	. A
C6	H14	0.07350	. A
C7	H3	0.07316	. A
C7	H4	0.07272	. A
C7	H5	0.07287	. A
C8	H6	0.07265	. A
C8	H7	0.07299	. A
C8	H8	0.07328	. A
O1	C12	0.09692	. A
C9	C10	0.10028	. A
C9	H10	0.07294	. A
C9	H11	0.07303	. A
C9	C12	0.10161	. A
C10	H9	0.07256	. A
C10	H12	0.07307	. A
C11	C12	0.10210	. A
C11	C13	0.09991	. A
C11	N3	0.09920	. A
C11	H17	0.07365	. A
H13	C12	0.07339	. A
C13	N1	0.09746	. A
C13	H15	0.07282	. A
C13	H16	0.07293	. A
N1	N2	0.09165	. A
N2	N3	0.08416	. A
