data_tobacco_crystal_2_PM
_symmetry_space_group_name_H-M	'P1'
_cell_length_a	15.000000
_cell_length_b	15.000000
_cell_length_c	15.000000
_cell_angle_alpha	90.000000
_cell_angle_beta	90.000000
_cell_angle_gamma	90.000000
_symmetry_Int_Tables_number 1

loop_
_symmetry_equiv_pos_as_xyz
'x,y,z'

loop_
_atom_site_label
_atom_site_type_symbol
_atom_site_fract_x
_atom_site_fract_y
_atom_site_fract_z
C1	C	0.003679	-0.073467	-0.003871
C2	C	-0.078987	-0.036267	-0.003604
C3	C	-0.087788	0.052600	-0.007404
C4	C	-0.015588	0.106400	-0.005271
C5	C	0.067746	0.070000	0.000596
C6	C	0.077812	-0.020867	-0.001538
N1	N	-0.177187	0.086800	-0.013804
O1	O	-0.157654	-0.086467	0.001729
C7	C	0.170679	-0.062467	-0.003938
Br1	Br	0.170079	0.144867	0.014729
H1	H	-0.148121	-0.148267	0.019596
H2	H	0.173013	-0.121200	-0.047404
H3	H	0.221479	-0.019000	-0.032737
H4	H	0.192012	-0.081000	0.063329
H5	H	-0.186854	0.147200	0.015996
H6	H	-0.224321	0.041133	0.003596

loop_
_geom_bond_atom_site_label_1
_geom_bond_atom_site_label_2
_geom_bond_distance
_ccdc_geom_bond_type
C1	C2	0.09065	. A
C1	C6	0.09093	. A
C2	C3	0.08938	. A
C2	O1	0.09347	. A
C3	C4	0.09007	. A
C3	N1	0.09593	. A
C4	C5	0.09113	. A
C5	C6	0.09145	. A
C6	C7	0.10179	. A
N1	H5	0.06804	. A
N1	H6	0.06790	. A
O1	H1	0.06503	. A
C7	H2	0.07311	. A
C7	H3	0.07280	. A
C7	H4	0.07296	. A
