data_tobacco_crystal_2_PM
_symmetry_space_group_name_H-M	'P1'
_cell_length_a	15.000000
_cell_length_b	15.000000
_cell_length_c	15.000000
_cell_angle_alpha	90.000000
_cell_angle_beta	90.000000
_cell_angle_gamma	90.000000
_symmetry_Int_Tables_number 1

loop_
_symmetry_equiv_pos_as_xyz
'x,y,z'

loop_
_atom_site_label
_atom_site_type_symbol
_atom_site_fract_x
_atom_site_fract_y
_atom_site_fract_z
X1	C	0.058789	-0.285549	0.002369
C1	C	-0.019744	-0.239749	-0.009631
C2	C	-0.020611	-0.147749	-0.015164
C3	C	0.058522	-0.103082	-0.004431
C4	C	0.134589	-0.149149	0.008102
C5	C	0.134922	-0.238216	0.011169
C6	C	0.070656	-0.006282	-0.011298
C7	C	-0.104678	-0.092082	-0.039698
Br1	Br	-0.128811	-0.304016	-0.022764
H1	H	0.200056	-0.267616	0.020702
H2	H	0.198056	-0.114282	0.014902
C8	C	0.030856	0.055184	0.040236
C9	C	0.034856	0.150451	0.023636
H3	H	-0.014544	0.034451	0.093036
H4	H	0.115722	0.015184	-0.064098
C10	C	-0.197078	-0.108682	-0.000098
H5	H	-0.194478	-0.128816	0.069836
H6	H	-0.234544	-0.157482	-0.039164
H7	H	-0.236678	-0.047349	-0.004164
H8	H	-0.110078	-0.092749	-0.112698
H9	H	-0.093878	-0.022082	-0.023698
C11	C	-0.042344	0.195984	0.013836
C12	C	-0.042278	0.284518	-0.000764
C13	C	0.035522	0.328984	-0.005364
C14	C	0.113322	0.284318	0.003636
C15	C	0.112789	0.195518	0.017969
H10	H	-0.105478	0.318851	-0.008631
H11	H	-0.106078	0.161451	0.017036
H12	H	0.175989	0.160851	0.025436
H13	H	0.176656	0.319184	-0.000231

loop_
_geom_bond_atom_site_label_1
_geom_bond_atom_site_label_2
_geom_bond_distance
_ccdc_geom_bond_type
X1	C1	0.09170	. A
X1	C5	0.09008	. A
C1	C2	0.09217	. A
C2	C3	0.09150	. A
C2	C7	0.10377	. A
C3	C4	0.08981	. A
C3	C6	0.09780	. A
C4	C5	0.08912	. A
C4	H2	0.07273	. A
C5	H1	0.07209	. A
C6	C8	0.08954	. A
C6	H4	0.07266	. A
C7	C10	0.10189	. A
C7	H8	0.07320	. A
C7	H9	0.07261	. A
C8	C9	0.09678	. A
C8	H3	0.07266	. A
C9	C11	0.09016	. A
C9	C15	0.09020	. A
C10	H5	0.07282	. A
C10	H6	0.07288	. A
C10	H7	0.07312	. A
C11	C12	0.08973	. A
C11	H11	0.07256	. A
C12	C13	0.08973	. A
C12	H10	0.07235	. A
C13	C14	0.09016	. A
C14	C15	0.08995	. A
C14	H13	0.07240	. A
C15	H12	0.07247	. A
