data_tobacco_crystal_2_PM
_symmetry_space_group_name_H-M	'P1'
_cell_length_a	15.000000
_cell_length_b	15.000000
_cell_length_c	15.000000
_cell_angle_alpha	90.000000
_cell_angle_beta	90.000000
_cell_angle_gamma	90.000000
_symmetry_Int_Tables_number 1

loop_
_symmetry_equiv_pos_as_xyz
'x,y,z'

loop_
_atom_site_label
_atom_site_type_symbol
_atom_site_fract_x
_atom_site_fract_y
_atom_site_fract_z
X1	C	0.014274	-0.261604	0.000000
C1	C	-0.067193	-0.222537	0.000000
C2	C	-0.076259	-0.133470	0.000000
C3	C	-0.003593	-0.081137	0.000000
C4	C	0.078007	-0.118804	0.000000
C5	C	0.087341	-0.208270	0.000000
C6	C	-0.011259	0.012930	0.000000
H1	H	-0.142926	-0.104870	0.000000
F1	F	-0.142993	-0.271070	0.000000
H2	H	0.155007	-0.233804	0.000000
H3	H	0.137541	-0.077004	0.000000
C7	C	-0.003259	0.092663	0.000000
C8	C	0.028141	0.181330	0.000000
C9	C	-0.023526	0.253730	0.000000
N1	N	0.012207	0.337863	0.000000
H4	H	-0.095859	0.248063	0.000000
H5	H	0.100074	0.188796	0.000000
N2	N	-0.045726	0.397196	0.000000

loop_
_geom_bond_atom_site_label_1
_geom_bond_atom_site_label_2
_geom_bond_distance
_ccdc_geom_bond_type
X1	C1	0.09035	. A
X1	C5	0.09046	. A
C1	C2	0.08953	. A
C1	F1	0.09001	. A
C2	C3	0.08955	. A
C2	H1	0.07254	. A
C3	C4	0.08987	. A
C3	C6	0.09438	. A
C4	C5	0.08995	. A
C4	H3	0.07274	. A
C5	H2	0.07232	. A
C6	C7	0.08013	. A
C7	C8	0.09406	. A
C8	C9	0.08894	. A
C8	H5	0.07232	. A
C9	N1	0.09141	. A
C9	H4	0.07255	. A
N1	N2	0.08293	. A
