data_tobacco_crystal_2_PM
_symmetry_space_group_name_H-M	'P1'
_cell_length_a	15.000000
_cell_length_b	15.000000
_cell_length_c	15.000000
_cell_angle_alpha	90.000000
_cell_angle_beta	90.000000
_cell_angle_gamma	90.000000
_symmetry_Int_Tables_number 1

loop_
_symmetry_equiv_pos_as_xyz
'x,y,z'

loop_
_atom_site_label
_atom_site_type_symbol
_atom_site_fract_x
_atom_site_fract_y
_atom_site_fract_z
X1	C	-0.004189	-0.331910	-0.020453
C1	C	-0.085855	-0.293377	-0.016053
C2	C	-0.094655	-0.205044	-0.003986
C3	C	-0.021989	-0.152377	0.005014
C4	C	0.058878	-0.189377	-0.008853
C5	C	0.068345	-0.278110	-0.021453
C6	C	-0.029189	-0.057644	0.038480
H1	H	-0.161722	-0.178177	0.003414
H2	H	-0.146655	-0.333244	-0.018186
C7	C	0.156678	-0.311044	-0.029720
H3	H	0.118211	-0.147644	-0.004920
N1	N	0.226678	-0.343510	-0.030786
C8	C	0.029678	0.015423	0.001147
N2	N	-0.029255	0.090023	0.014147
N3	N	-0.116055	0.062556	0.021814
N4	N	-0.119522	-0.020444	0.028147
C9	C	-0.011522	0.179823	0.004814
H4	H	0.092278	0.022156	0.038014
H5	H	0.042545	0.008556	-0.070453
H6	H	-0.016855	-0.061577	0.110680
C10	C	-0.080722	0.236823	-0.003786
C11	C	-0.068655	0.324623	-0.012253
C12	C	0.014278	0.358956	-0.010986
C13	C	0.084678	0.303556	-0.003253
C14	C	0.071811	0.214290	0.004347
H7	H	-0.127389	0.366423	-0.020120
H8	H	-0.149122	0.212623	-0.004053
H9	H	0.130478	0.172890	0.011480
F1	F	0.168811	0.334756	-0.002186

loop_
_geom_bond_atom_site_label_1
_geom_bond_atom_site_label_2
_geom_bond_distance
_ccdc_geom_bond_type
X1	C1	0.09041	. A
X1	C5	0.09031	. A
C1	C2	0.08959	. A
C1	H2	0.07274	. A
C2	C3	0.09020	. A
C2	H1	0.07263	. A
C3	C4	0.09000	. A
C3	C6	0.10073	. A
C4	C5	0.09012	. A
C4	H3	0.07265	. A
C5	C7	0.09463	. A
C6	C8	0.10098	. A
C6	N4	0.09824	. A
C6	H6	0.07335	. A
C7	N1	0.07717	. A
C8	N2	0.09595	. A
C8	H4	0.07296	. A
C8	H5	0.07307	. A
N2	N3	0.09136	. A
N2	C9	0.09201	. A
N3	N4	0.08331	. A
C9	C10	0.09006	. A
C9	C14	0.09018	. A
C10	C11	0.08903	. A
C10	H8	0.07256	. A
C11	C12	0.08977	. A
C11	H7	0.07252	. A
C12	C13	0.08992	. A
C13	C14	0.09051	. A
C13	F1	0.08974	. A
C14	H9	0.07216	. A
