data_tobacco_crystal_2_PM
_symmetry_space_group_name_H-M	'P1'
_cell_length_a	15.000000
_cell_length_b	15.000000
_cell_length_c	15.000000
_cell_angle_alpha	90.000000
_cell_angle_beta	90.000000
_cell_angle_gamma	90.000000
_symmetry_Int_Tables_number 1

loop_
_symmetry_equiv_pos_as_xyz
'x,y,z'

loop_
_atom_site_label
_atom_site_type_symbol
_atom_site_fract_x
_atom_site_fract_y
_atom_site_fract_z
X1	C	0.063863	-0.182323	0.005007
C1	C	-0.021270	-0.155123	0.016273
C2	C	-0.043937	-0.068257	0.021873
C3	C	0.020197	-0.005123	0.010807
C4	C	0.105930	-0.031857	-0.002327
C5	C	0.127863	-0.119323	-0.001793
C6	C	0.000863	0.088610	0.014407
C7	C	-0.186403	-0.015257	-0.020793
H1	H	-0.075003	-0.203857	0.021407
H2	H	0.197797	-0.136123	-0.008927
N1	N	0.176797	0.031343	-0.018527
C8	C	0.003797	0.168610	0.009140
N2	N	0.027863	0.253477	-0.004527
H3	H	-0.212670	-0.070257	-0.060860
H4	H	-0.153137	0.033410	-0.063527
H5	H	-0.242337	0.017877	0.012340
O1	O	-0.130137	-0.048257	0.047673
H6	H	0.215863	0.039943	0.036473
H7	H	0.153597	0.093877	-0.032793
N3	N	-0.029537	0.308610	0.018673

loop_
_geom_bond_atom_site_label_1
_geom_bond_atom_site_label_2
_geom_bond_distance
_ccdc_geom_bond_type
X1	C1	0.09008	. A
X1	C5	0.09006	. A
C1	C2	0.08995	. A
C1	H1	0.07272	. A
C2	C3	0.09067	. A
C2	O1	0.09217	. A
C3	C4	0.09076	. A
C3	C6	0.09577	. A
C4	C5	0.09018	. A
C4	N1	0.09633	. A
C5	H2	0.07228	. A
C6	C8	0.08023	. A
C7	H3	0.07294	. A
C7	H4	0.07281	. A
C7	H5	0.07297	. A
C7	O1	0.09457	. A
N1	H6	0.06801	. A
N1	H7	0.06821	. A
C8	N2	0.08927	. A
N2	N3	0.08290	. A
