data_tobacco_crystal_2_PM
_symmetry_space_group_name_H-M	'P1'
_cell_length_a	15.000000
_cell_length_b	15.000000
_cell_length_c	15.000000
_cell_angle_alpha	90.000000
_cell_angle_beta	90.000000
_cell_angle_gamma	90.000000
_symmetry_Int_Tables_number 1

loop_
_symmetry_equiv_pos_as_xyz
'x,y,z'

loop_
_atom_site_label
_atom_site_type_symbol
_atom_site_fract_x
_atom_site_fract_y
_atom_site_fract_z
X1	C	0.023806	-0.268974	-0.003687
C1	C	-0.053528	-0.222174	0.002380
C2	C	-0.054861	-0.132107	0.007713
C3	C	0.024072	-0.088241	0.006513
C4	C	0.101206	-0.133707	0.000446
C5	C	0.101672	-0.223441	-0.004820
C6	C	0.026606	0.006226	0.007580
C7	C	-0.143328	-0.083507	0.011846
H1	H	-0.117261	-0.257241	0.002580
Cl1	Cl	0.206139	-0.272707	-0.014754
H2	H	0.163806	-0.096974	-0.001220
H3	H	-0.197128	-0.122441	-0.018487
H4	H	-0.141928	-0.020241	-0.024820
H5	H	-0.161194	-0.069374	0.081180
C8	C	0.020139	0.085426	-0.002020
C9	C	0.004206	0.177426	-0.026887
C10	C	0.078006	0.240493	-0.004087
N1	N	0.024806	0.317559	0.015913
N2	N	-0.060261	0.295226	0.039246
N3	N	-0.071394	0.212893	0.025513
H6	H	0.124872	0.251959	-0.058687
H7	H	0.114806	0.222026	0.056313
H8	H	-0.013261	0.181893	-0.097754

loop_
_geom_bond_atom_site_label_1
_geom_bond_atom_site_label_2
_geom_bond_distance
_ccdc_geom_bond_type
X1	C1	0.09060	. A
X1	C5	0.09021	. A
C1	C2	0.09023	. A
C1	H1	0.07274	. A
C2	C3	0.09031	. A
C2	C7	0.10102	. A
C3	C4	0.08974	. A
C3	C6	0.09451	. A
C4	C5	0.08989	. A
C4	H2	0.07260	. A
C5	Cl1	0.11593	. A
C6	C8	0.08004	. A
C7	H3	0.07301	. A
C7	H4	0.07314	. A
C7	H5	0.07298	. A
C8	C9	0.09662	. A
C9	C10	0.09972	. A
C9	N3	0.09859	. A
C9	H8	0.07312	. A
C10	N1	0.09576	. A
C10	H6	0.07286	. A
C10	H7	0.07310	. A
N1	N2	0.09099	. A
N2	N3	0.08421	. A
