data_tobacco_crystal_2_PM
_symmetry_space_group_name_H-M	'P1'
_cell_length_a	15.000000
_cell_length_b	15.000000
_cell_length_c	15.000000
_cell_angle_alpha	90.000000
_cell_angle_beta	90.000000
_cell_angle_gamma	90.000000
_symmetry_Int_Tables_number 1

loop_
_symmetry_equiv_pos_as_xyz
'x,y,z'

loop_
_atom_site_label
_atom_site_type_symbol
_atom_site_fract_x
_atom_site_fract_y
_atom_site_fract_z
X1	C	0.026736	-0.446217	0.004373
C1	C	-0.054064	-0.405817	0.001840
C2	C	-0.060531	-0.316217	-0.000360
C3	C	0.013069	-0.264684	0.000440
C4	C	0.093336	-0.305284	0.002906
C5	C	0.100736	-0.394884	0.005440
N1	N	0.010736	-0.173617	-0.004360
H1	H	-0.126198	-0.285417	-0.002760
H2	H	-0.115131	-0.445084	0.001106
H3	H	0.167669	-0.421551	0.007706
H4	H	0.153402	-0.264684	0.003106
N2	N	-0.032598	-0.133351	0.054173
C6	C	-0.012464	-0.046817	0.045773
C7	C	0.013336	0.027116	0.029040
N3	N	0.043536	0.104383	-0.002694
N4	N	0.031136	0.166983	0.050173
C8	C	0.031402	0.251383	0.000706
O1	O	0.073936	0.328316	0.038706
C9	C	-0.062864	0.380049	-0.012894
C10	C	-0.065464	0.279383	-0.012960
H5	H	-0.108531	0.255516	0.041173
H6	H	-0.097798	0.405383	0.046106
H7	H	-0.095264	0.408649	-0.071627
H8	H	-0.092064	0.251583	-0.074960
H9	H	0.064536	0.401049	-0.076494
C11	C	0.036069	0.401849	-0.008960
H10	H	0.063336	0.241983	-0.064694

loop_
_geom_bond_atom_site_label_1
_geom_bond_atom_site_label_2
_geom_bond_distance
_ccdc_geom_bond_type
X1	C1	0.09037	. A
X1	C5	0.09007	. A
C1	C2	0.08986	. A
C1	H2	0.07261	. A
C2	C3	0.08985	. A
C2	H1	0.07257	. A
C3	C4	0.08998	. A
C3	N1	0.09122	. A
C4	C5	0.08994	. A
C4	H4	0.07250	. A
C5	H3	0.07209	. A
N1	N2	0.08322	. A
N2	C6	0.08924	. A
C6	C7	0.08007	. A
C7	N3	0.08882	. A
N3	N4	0.08287	. A
N4	C8	0.09783	. A
C8	O1	0.09577	. A
C8	C10	0.10175	. A
C8	H10	0.07338	. A
O1	C11	0.09546	. A
C9	C10	0.10070	. A
C9	H6	0.07310	. A
C9	H7	0.07292	. A
C9	C11	0.10138	. A
C10	H5	0.07318	. A
C10	H8	0.07297	. A
H9	C11	0.07329	. A
