data_tobacco_crystal_2_PM
_symmetry_space_group_name_H-M	'P1'
_cell_length_a	15.000000
_cell_length_b	15.000000
_cell_length_c	15.000000
_cell_angle_alpha	90.000000
_cell_angle_beta	90.000000
_cell_angle_gamma	90.000000
_symmetry_Int_Tables_number 1

loop_
_symmetry_equiv_pos_as_xyz
'x,y,z'

loop_
_atom_site_label
_atom_site_type_symbol
_atom_site_fract_x
_atom_site_fract_y
_atom_site_fract_z
X1	C	0.011527	-0.322497	-0.024760
C1	C	-0.066606	-0.279430	-0.014893
C2	C	-0.070073	-0.191630	0.007374
C3	C	0.007394	-0.147097	0.024174
C4	C	0.085927	-0.189164	0.005974
C5	C	0.087661	-0.275297	-0.019293
C6	C	0.014461	-0.053964	0.068507
C7	C	-0.162406	-0.151297	0.012307
H1	H	-0.128139	-0.316164	-0.024226
H2	H	0.151727	-0.306030	-0.032160
O1	O	0.166127	-0.144230	0.014774
H3	H	0.216394	-0.175764	-0.011360
H4	H	-0.168739	-0.096830	-0.036093
H5	H	-0.178473	-0.127964	0.079374
H6	H	-0.214606	-0.199430	-0.005493
C8	C	0.074661	0.015703	0.026840
N1	N	0.025327	0.097103	0.043574
N2	N	-0.059873	0.077903	0.069374
N3	N	-0.070006	-0.004564	0.078907
C9	C	0.040261	0.173703	-0.013293
H7	H	0.082461	0.006370	-0.045026
H8	H	0.139861	0.020370	0.059374
H9	H	0.037527	-0.066764	0.136974
O2	O	0.088861	0.242570	0.032374
C10	C	-0.034006	0.314236	-0.027160
C11	C	-0.043673	0.217170	-0.051760
H10	H	-0.107006	0.190970	-0.026960
H11	H	-0.060339	0.358836	-0.078426
H12	H	-0.069806	0.327303	0.035240
H13	H	-0.044406	0.207970	-0.124093
H14	H	0.099327	0.322370	-0.078293
C12	C	0.065661	0.323370	-0.013226
H15	H	0.082994	0.152170	-0.068626

loop_
_geom_bond_atom_site_label_1
_geom_bond_atom_site_label_2
_geom_bond_distance
_ccdc_geom_bond_type
X1	C1	0.08976	. A
X1	C5	0.08974	. A
C1	C2	0.09065	. A
C1	H1	0.07227	. A
C2	C3	0.09092	. A
C2	C7	0.10088	. A
C3	C4	0.09093	. A
C3	C6	0.10339	. A
C4	C5	0.08978	. A
C4	O1	0.09235	. A
C5	H2	0.07221	. A
C6	C8	0.10106	. A
C6	N3	0.09840	. A
C6	H9	0.07337	. A
C7	H4	0.07314	. A
C7	H5	0.07280	. A
C7	H6	0.07320	. A
O1	H3	0.06484	. A
C8	N1	0.09664	. A
C8	H7	0.07289	. A
C8	H8	0.07302	. A
N1	N2	0.09107	. A
N1	C9	0.09656	. A
N2	N3	0.08363	. A
C9	O2	0.09586	. A
C9	C11	0.10205	. A
C9	H15	0.07315	. A
O2	C12	0.09564	. A
C10	C11	0.10060	. A
C10	H11	0.07288	. A
C10	H12	0.07312	. A
C10	C12	0.10105	. A
C11	H10	0.07289	. A
C11	H13	0.07292	. A
H14	C12	0.07327	. A
