data_tobacco_crystal_2_PM
_symmetry_space_group_name_H-M	'P1'
_cell_length_a	15.000000
_cell_length_b	15.000000
_cell_length_c	15.000000
_cell_angle_alpha	90.000000
_cell_angle_beta	90.000000
_cell_angle_gamma	90.000000
_symmetry_Int_Tables_number 1

loop_
_symmetry_equiv_pos_as_xyz
'x,y,z'

loop_
_atom_site_label
_atom_site_type_symbol
_atom_site_fract_x
_atom_site_fract_y
_atom_site_fract_z
X1	C	-0.039367	-0.313548	-0.005898
C1	C	-0.119901	-0.272215	-0.008298
C2	C	-0.129167	-0.183948	0.003769
C3	C	-0.058101	-0.130748	0.020436
C4	C	0.019966	-0.175615	0.026236
C5	C	0.034433	-0.263481	0.011636
C6	C	-0.060901	-0.029481	0.022969
H1	H	-0.196234	-0.157415	-0.002631
H2	H	-0.180434	-0.310348	-0.022164
C7	C	0.134833	-0.283948	0.015369
H3	H	0.079166	-0.138748	0.042302
C8	C	-0.139901	0.014252	0.009436
C9	C	-0.144901	0.102919	-0.002831
C10	C	-0.071301	0.154519	-0.001564
C11	C	0.005633	0.113119	0.019902
C12	C	0.012233	0.024985	0.031502
C13	C	-0.070767	0.251785	-0.029431
H4	H	-0.209634	0.132319	-0.017631
H5	H	-0.202634	-0.021681	0.004502
C14	C	0.158299	-0.001748	-0.021698
H6	H	0.066433	0.151852	0.026036
C15	C	0.010566	0.307719	-0.005098
C16	C	-0.018167	0.399719	-0.034831
N1	N	-0.116567	0.400185	-0.022831
N2	N	-0.142234	0.309585	0.004102
H7	H	-0.201167	0.291985	-0.025364
H8	H	-0.132234	0.446252	0.025502
H9	H	0.070899	0.286585	-0.040498
H10	H	-0.003701	0.409319	-0.105831
H11	H	0.024299	0.305519	0.066836
H12	H	-0.075434	0.250452	-0.102831
H13	H	0.221766	-0.029281	0.000969
H14	H	0.134099	-0.042748	-0.077098
H15	H	0.169699	0.066652	-0.043898
O1	O	0.097699	-0.005748	0.052102
C17	C	0.176433	-0.373215	0.038236
H16	H	0.136766	-0.411615	0.085436
H17	H	0.242233	-0.361081	0.068169
H18	H	0.189899	-0.412281	-0.021831
H19	H	0.164433	-0.238948	0.065436
H20	H	0.162966	-0.261881	-0.048631

loop_
_geom_bond_atom_site_label_1
_geom_bond_atom_site_label_2
_geom_bond_distance
_ccdc_geom_bond_type
X1	C1	0.09055	. A
X1	C5	0.09089	. A
C1	C2	0.08957	. A
C1	H2	0.07287	. A
C2	C3	0.09032	. A
C2	H1	0.07241	. A
C3	C4	0.09023	. A
C3	C6	0.10134	. A
C4	C5	0.09024	. A
C4	H3	0.07157	. A
C5	C7	0.10253	. A
C6	C8	0.09131	. A
C6	C12	0.09159	. A
C7	C17	0.10110	. A
C7	H19	0.07354	. A
C7	H20	0.07331	. A
C8	C9	0.08965	. A
C8	H5	0.07246	. A
C9	C10	0.08990	. A
C9	H4	0.07262	. A
C10	C11	0.08996	. A
C10	C13	0.10118	. A
C11	C12	0.08914	. A
C11	H6	0.07235	. A
C12	O1	0.09313	. A
C13	C15	0.10166	. A
C13	N2	0.09784	. A
C13	H12	0.07356	. A
C14	H13	0.07280	. A
C14	H14	0.07305	. A
C14	H15	0.07281	. A
C14	O1	0.09558	. A
C15	C16	0.10086	. A
C15	H9	0.07307	. A
C15	H11	0.07327	. A
C16	N1	0.09913	. A
C16	H10	0.07309	. A
N1	N2	0.09794	. A
N1	H8	0.06858	. A
N2	H7	0.06820	. A
C17	H16	0.07264	. A
C17	H17	0.07330	. A
C17	H18	0.07291	. A
