data_tobacco_crystal_2_PM
_symmetry_space_group_name_H-M	'P1'
_cell_length_a	15.000000
_cell_length_b	15.000000
_cell_length_c	15.000000
_cell_angle_alpha	90.000000
_cell_angle_beta	90.000000
_cell_angle_gamma	90.000000
_symmetry_Int_Tables_number 1

loop_
_symmetry_equiv_pos_as_xyz
'x,y,z'

loop_
_atom_site_label
_atom_site_type_symbol
_atom_site_fract_x
_atom_site_fract_y
_atom_site_fract_z
X1	C	-0.018272	-0.205617	0.012031
H1	H	0.098594	-0.318150	0.008964
C1	C	-0.091006	-0.152083	0.018031
C2	C	-0.081406	-0.062883	0.014031
C3	C	-0.001739	-0.021283	0.002764
C4	C	0.070728	-0.075950	0.000097
C5	C	0.063061	-0.166150	0.004764
C6	C	-0.001272	0.080183	-0.014303
H2	H	-0.142339	-0.023817	0.017497
N1	N	-0.179206	-0.185417	0.027097
O1	O	0.139661	-0.219417	-0.000636
Cl1	Cl	0.178328	-0.034483	-0.015103
H3	H	-0.231806	-0.147817	0.007764
C7	C	0.072861	0.145250	0.013097
C8	C	0.033661	0.233783	-0.018703
N2	N	-0.064072	0.222050	-0.010103
N3	N	-0.077539	0.131650	0.021897
H4	H	-0.136539	0.107850	-0.002303
H5	H	-0.088472	0.269583	0.032897
H6	H	0.135994	0.134117	-0.021369
H7	H	0.048594	0.242717	-0.089769
H8	H	0.085328	0.144583	0.085297
H9	H	-0.006206	0.083517	-0.087569
H10	H	0.193061	-0.182217	-0.006369

loop_
_geom_bond_atom_site_label_1
_geom_bond_atom_site_label_2
_geom_bond_distance
_ccdc_geom_bond_type
X1	C1	0.09051	. A
X1	C5	0.09069	. A
C1	C2	0.08980	. A
C1	N1	0.09472	. A
C2	C3	0.09058	. A
C2	H2	0.07246	. A
C3	C4	0.09081	. A
C3	C6	0.10289	. A
C4	C5	0.09065	. A
C4	Cl1	0.11631	. A
C5	O1	0.09346	. A
C6	C7	0.10237	. A
C6	N3	0.09887	. A
C6	H9	0.07351	. A
N1	H3	0.06749	. A
O1	H10	0.06533	. A
C7	C8	0.10191	. A
C7	H6	0.07279	. A
C7	H8	0.07327	. A
C8	N2	0.09881	. A
C8	H7	0.07317	. A
N2	N3	0.09684	. A
N2	H5	0.06858	. A
N3	H4	0.06807	. A
