data_tobacco_crystal_2_PM
_symmetry_space_group_name_H-M	'P1'
_cell_length_a	15.000000
_cell_length_b	15.000000
_cell_length_c	15.000000
_cell_angle_alpha	90.000000
_cell_angle_beta	90.000000
_cell_angle_gamma	90.000000
_symmetry_Int_Tables_number 1

loop_
_symmetry_equiv_pos_as_xyz
'x,y,z'

loop_
_atom_site_label
_atom_site_type_symbol
_atom_site_fract_x
_atom_site_fract_y
_atom_site_fract_z
X1	C	0.073929	-0.276630	0.008002
C1	C	0.001329	-0.228697	-0.016864
C2	C	0.001662	-0.137763	-0.011531
C3	C	0.076595	-0.095897	0.017002
C4	C	0.150195	-0.143697	0.036336
C5	C	0.149195	-0.233097	0.032536
C6	C	0.079395	-0.001630	0.026136
C7	C	-0.143338	-0.085697	0.023936
N1	N	-0.076805	-0.271497	-0.051664
H1	H	0.209729	-0.268097	0.050869
H2	H	0.211529	-0.109630	0.056136
H3	H	-0.104871	-0.312830	-0.005464
H4	H	-0.123605	-0.227963	-0.074398
C8	C	0.074662	0.078837	0.022469
C9	C	0.055862	0.167570	-0.010464
O1	O	0.098395	0.241303	0.033936
C10	C	-0.042071	0.291570	-0.009931
C11	C	-0.042538	0.190503	-0.007798
H5	H	-0.075071	0.167303	0.053469
H6	H	-0.076871	0.317903	0.048736
H7	H	-0.075471	0.317903	-0.069264
H8	H	-0.078338	0.161037	-0.064131
H9	H	0.081462	0.314903	-0.078331
C12	C	0.056929	0.315970	-0.009198
H10	H	0.079729	0.168570	-0.079598
H11	H	-0.119538	-0.071963	0.091869
H12	H	-0.181338	-0.147697	0.022869
H13	H	-0.188738	-0.032763	0.003669
O2	O	-0.072005	-0.087830	-0.039331

loop_
_geom_bond_atom_site_label_1
_geom_bond_atom_site_label_2
_geom_bond_distance
_ccdc_geom_bond_type
X1	C1	0.09048	. A
X1	C5	0.09034	. A
C1	C2	0.09109	. A
C1	N1	0.09564	. A
C2	C3	0.09045	. A
C2	O2	0.09324	. A
C3	C4	0.08986	. A
C3	C6	0.09475	. A
C4	C5	0.08949	. A
C4	H2	0.07290	. A
C5	H1	0.07229	. A
C6	C8	0.08069	. A
C7	H11	0.07328	. A
C7	H12	0.07273	. A
C7	H13	0.07262	. A
C7	O2	0.09537	. A
N1	H3	0.06805	. A
N1	H4	0.06784	. A
C8	C9	0.09650	. A
C9	O1	0.09601	. A
C9	C11	0.10107	. A
C9	H10	0.07314	. A
O1	C12	0.09568	. A
C10	C11	0.10109	. A
C10	H6	0.07312	. A
C10	H7	0.07300	. A
C10	C12	0.10197	. A
C11	H5	0.07315	. A
C11	H8	0.07296	. A
H9	C12	0.07337	. A
