data_tobacco_crystal_2_PM
_symmetry_space_group_name_H-M	'P1'
_cell_length_a	15.000000
_cell_length_b	15.000000
_cell_length_c	15.000000
_cell_angle_alpha	90.000000
_cell_angle_beta	90.000000
_cell_angle_gamma	90.000000
_symmetry_Int_Tables_number 1

loop_
_symmetry_equiv_pos_as_xyz
'x,y,z'

loop_
_atom_site_label
_atom_site_type_symbol
_atom_site_fract_x
_atom_site_fract_y
_atom_site_fract_z
X1	C	0.022794	-0.428941	-0.004621
C1	C	-0.053072	-0.381541	-0.015888
C2	C	-0.049606	-0.293008	-0.027354
C3	C	0.029794	-0.251074	-0.027754
C4	C	0.105461	-0.297808	-0.017954
C5	C	0.102394	-0.386408	-0.005954
N1	N	0.032928	-0.161141	-0.033888
H1	H	-0.110606	-0.254808	-0.034488
H2	H	-0.118606	-0.413541	-0.014288
H3	H	0.165928	-0.419274	0.004112
H4	H	0.168794	-0.262408	-0.017554
N2	N	0.023461	-0.125008	0.040779
C6	C	0.018261	-0.035208	0.031712
C7	C	-0.060739	0.004859	0.015246
C8	C	-0.061139	0.093459	0.000912
C9	C	0.013994	0.143992	0.004112
C10	C	0.091794	0.100992	0.020312
C11	C	0.093728	0.012859	0.034312
C12	C	0.010194	0.242326	-0.004954
H5	H	-0.125806	0.122392	-0.013354
C13	C	-0.147006	-0.047274	0.012512
H6	H	0.156994	-0.020474	0.046646
H7	H	0.155594	0.134659	0.023446
C14	C	-0.069072	0.285726	-0.004288
C15	C	-0.074406	0.374992	-0.004288
C16	C	0.000728	0.424192	-0.004221
C17	C	0.080594	0.383126	-0.007821
C18	C	0.084861	0.293526	-0.008888
H8	H	-0.139739	0.405792	-0.001554
H9	H	-0.132539	0.251459	-0.001354
H10	H	0.151128	0.264726	-0.010888
H11	H	0.142261	0.421392	-0.008288
H12	H	-0.205539	-0.003674	0.015046
H13	H	-0.152539	-0.092608	0.069579
H14	H	-0.151272	-0.086274	-0.049088

loop_
_geom_bond_atom_site_label_1
_geom_bond_atom_site_label_2
_geom_bond_distance
_ccdc_geom_bond_type
X1	C1	0.09016	. A
X1	C5	0.09026	. A
C1	C2	0.08934	. A
C1	H2	0.07295	. A
C2	C3	0.08979	. A
C2	H1	0.07233	. A
C3	C4	0.08947	. A
C3	N1	0.09020	. A
C4	C5	0.08946	. A
C4	H4	0.07256	. A
C5	H3	0.07224	. A
N1	N2	0.08349	. A
N2	C6	0.09041	. A
C6	C7	0.09010	. A
C6	C11	0.08951	. A
C7	C8	0.08975	. A
C7	C13	0.10083	. A
C8	C9	0.09060	. A
C8	H5	0.07227	. A
C9	C10	0.09036	. A
C9	C12	0.09882	. A
C10	C11	0.08926	. A
C10	H7	0.07221	. A
C11	H6	0.07257	. A
C12	C14	0.09037	. A
C12	C18	0.09062	. A
C13	H12	0.07303	. A
C13	H13	0.07309	. A
C13	H14	0.07303	. A
C14	C15	0.08943	. A
C14	H9	0.07219	. A
C15	C16	0.08981	. A
C15	H8	0.07228	. A
C16	C17	0.08988	. A
C17	C18	0.08971	. A
C17	H11	0.07258	. A
C18	H10	0.07228	. A
