data_tobacco_crystal_2_PM
_symmetry_space_group_name_H-M	'P1'
_cell_length_a	15.000000
_cell_length_b	15.000000
_cell_length_c	15.000000
_cell_angle_alpha	90.000000
_cell_angle_beta	90.000000
_cell_angle_gamma	90.000000
_symmetry_Int_Tables_number 1

loop_
_symmetry_equiv_pos_as_xyz
'x,y,z'

loop_
_atom_site_label
_atom_site_type_symbol
_atom_site_fract_x
_atom_site_fract_y
_atom_site_fract_z
X1	C	0.064413	-0.217233	0.001107
C1	C	-0.014253	-0.176167	0.018373
C2	C	-0.020253	-0.086033	0.022907
C3	C	0.053947	-0.037100	0.006907
C4	C	0.132413	-0.077767	-0.009693
C5	C	0.138147	-0.167233	-0.011827
C6	C	0.051613	0.057767	0.007773
C7	C	-0.173053	-0.050300	-0.005827
H1	H	-0.073853	-0.215767	0.030707
H2	H	0.203480	-0.195500	-0.024827
H3	H	0.192213	-0.038100	-0.020893
C8	C	0.056547	0.137700	0.007973
N1	N	0.072280	0.225167	0.009240
N2	N	0.004213	0.268967	-0.007760
N3	N	0.028413	0.358100	-0.003027
N4	N	-0.036853	0.407833	-0.013627
H4	H	-0.215453	-0.105167	0.016640
H5	H	-0.155720	-0.057833	-0.076227
H6	H	-0.211053	0.011700	0.001640
O1	O	-0.097187	-0.043033	0.050440

loop_
_geom_bond_atom_site_label_1
_geom_bond_atom_site_label_2
_geom_bond_distance
_ccdc_geom_bond_type
X1	C1	0.09040	. A
X1	C5	0.09002	. A
C1	C2	0.09045	. A
C1	H1	0.07261	. A
C2	C3	0.09031	. A
C2	O1	0.09234	. A
C3	C4	0.08992	. A
C3	C6	0.09490	. A
C4	C5	0.08968	. A
C4	H3	0.07263	. A
C5	H2	0.07236	. A
C6	C8	0.08009	. A
C7	H4	0.07289	. A
C7	H5	0.07289	. A
C7	H6	0.07310	. A
C7	O1	0.09473	. A
C8	N1	0.08888	. A
N1	N2	0.08271	. A
N2	N3	0.09248	. A
N3	N4	0.08274	. A
