data_tobacco_crystal_2_PM
_symmetry_space_group_name_H-M	'P1'
_cell_length_a	15.000000
_cell_length_b	15.000000
_cell_length_c	15.000000
_cell_angle_alpha	90.000000
_cell_angle_beta	90.000000
_cell_angle_gamma	90.000000
_symmetry_Int_Tables_number 1

loop_
_symmetry_equiv_pos_as_xyz
'x,y,z'

loop_
_atom_site_label
_atom_site_type_symbol
_atom_site_fract_x
_atom_site_fract_y
_atom_site_fract_z
X1	C	-0.010357	-0.199585	0.003788
C1	C	0.039736	-0.116171	0.029181
C2	C	-0.012544	-0.051245	-0.027372
N1	N	-0.105657	-0.078331	-0.012279
N2	N	-0.104051	-0.171545	0.003368
C3	C	0.008209	0.046569	-0.009279
H1	H	-0.138811	-0.203858	-0.047732
H2	H	-0.128117	-0.051518	0.048035
H3	H	0.112523	-0.118945	0.015855
H4	H	0.003776	-0.064005	-0.098799
H5	H	0.027703	-0.100585	0.100835
H6	H	0.009016	-0.219618	-0.065245
C4	C	-0.057671	0.109342	0.014288
C5	C	-0.035251	0.198675	0.028575
X2	C	0.053303	0.227682	0.019828
C6	C	0.119109	0.165369	-0.003752
C7	C	0.096716	0.076135	-0.018345
H7	H	-0.087611	0.245169	0.046221
H8	H	-0.126957	0.090955	0.021035
H9	H	0.148929	0.029909	-0.036939
H10	H	0.188009	0.185602	-0.011265
