data_tobacco_crystal_2_PM
_symmetry_space_group_name_H-M	'P1'
_cell_length_a	15.000000
_cell_length_b	15.000000
_cell_length_c	15.000000
_cell_angle_alpha	90.000000
_cell_angle_beta	90.000000
_cell_angle_gamma	90.000000
_symmetry_Int_Tables_number 1

loop_
_symmetry_equiv_pos_as_xyz
'x,y,z'

loop_
_atom_site_label
_atom_site_type_symbol
_atom_site_fract_x
_atom_site_fract_y
_atom_site_fract_z
C1	C	-0.016919	-0.054429	0.043867
C2	C	-0.092519	-0.006696	0.055867
C3	C	-0.089586	0.082438	0.046867
C4	C	-0.015186	0.123104	0.018267
C5	C	0.058748	0.074504	0.000600
C6	C	0.060681	-0.014896	0.017400
C7	C	-0.018519	0.217371	0.006800
H1	H	-0.149252	0.121371	0.060867
C8	C	-0.231386	-0.043762	0.001867
C9	C	0.149348	-0.065296	0.011933
O1	O	0.132148	0.117304	-0.035867
C10	C	0.156281	-0.147429	-0.047600
H2	H	0.208081	-0.191762	-0.021067
H3	H	0.175948	-0.128829	-0.115267
H4	H	0.095081	-0.186362	-0.052333
H5	H	0.203881	-0.020762	-0.007733
H6	H	0.166948	-0.084496	0.080467
C11	C	-0.027852	0.297104	0.001600
H7	H	0.148814	0.089371	-0.092067
H8	H	-0.270052	0.018038	0.003600
H9	H	-0.194852	-0.048229	-0.061333
H10	H	-0.276919	-0.100362	0.005667
O2	O	-0.172919	-0.047296	0.077600

loop_
_geom_bond_atom_site_label_1
_geom_bond_atom_site_label_2
_geom_bond_distance
_ccdc_geom_bond_type
C1	C2	0.09021	. A
C1	C6	0.09102	. A
C2	C3	0.08963	. A
C2	O2	0.09265	. A
C3	C4	0.08948	. A
C3	H1	0.07261	. A
C4	C5	0.09022	. A
C4	C7	0.09502	. A
C5	C6	0.09099	. A
C5	O1	0.09246	. A
C6	C9	0.10214	. A
C7	C11	0.08045	. A
C8	H8	0.07292	. A
C8	H9	0.07314	. A
C8	H10	0.07274	. A
C8	O2	0.09574	. A
C9	C10	0.10168	. A
C9	H5	0.07310	. A
C9	H6	0.07332	. A
O1	H7	0.06493	. A
C10	H2	0.07316	. A
C10	H3	0.07288	. A
C10	H4	0.07269	. A
