data_tobacco_crystal_2_PM
_symmetry_space_group_name_H-M	'P1'
_cell_length_a	15.000000
_cell_length_b	15.000000
_cell_length_c	15.000000
_cell_angle_alpha	90.000000
_cell_angle_beta	90.000000
_cell_angle_gamma	90.000000
_symmetry_Int_Tables_number 1

loop_
_symmetry_equiv_pos_as_xyz
'x,y,z'

loop_
_atom_site_label
_atom_site_type_symbol
_atom_site_fract_x
_atom_site_fract_y
_atom_site_fract_z
X1	C	0.020970	-0.330217	-0.022354
C1	C	-0.052230	-0.283017	-0.045954
C2	C	-0.050230	-0.193417	-0.038888
C3	C	0.019703	-0.150817	-0.002021
C4	C	0.094970	-0.197950	0.013646
C5	C	0.095570	-0.287017	0.004112
C6	C	0.009570	-0.058884	0.037112
H1	H	-0.111164	-0.157017	-0.055288
C7	C	-0.199030	-0.308017	-0.006021
H2	H	0.155636	-0.321750	0.024512
H3	H	0.153570	-0.164950	0.041912
C8	C	0.064103	0.017916	0.002179
N1	N	-0.000164	0.088850	0.013579
N2	N	-0.085230	0.055983	0.017312
N3	N	-0.083430	-0.025950	0.029912
C9	C	0.009903	0.177716	-0.021821
H4	H	0.082236	0.012050	-0.068288
H5	H	0.123036	0.030116	0.043312
H6	H	0.021903	-0.065350	0.108979
C10	C	0.100103	0.222316	-0.010954
C11	C	0.078703	0.313383	0.028979
N4	N	-0.018830	0.320116	0.035046
N5	N	-0.050964	0.231583	0.031712
N6	N	0.120703	0.387116	-0.021088
H7	H	-0.114830	0.223383	0.009712
H8	H	-0.039097	0.357250	-0.018488
H9	H	0.133436	0.227316	-0.075821
H10	H	0.106036	0.315916	0.096712
H11	H	0.144303	0.185383	0.033979
H12	H	-0.009430	0.176383	-0.091954
N7	N	0.064636	0.439716	-0.054154
H13	H	-0.238697	-0.249950	-0.026021
H14	H	-0.171897	-0.297417	0.060846
H15	H	-0.243030	-0.366350	-0.003221
O1	O	-0.130830	-0.324417	-0.071221

loop_
_geom_bond_atom_site_label_1
_geom_bond_atom_site_label_2
_geom_bond_distance
_ccdc_geom_bond_type
X1	C1	0.09024	. A
X1	C5	0.09018	. A
C1	C2	0.08990	. A
C1	O1	0.09236	. A
C2	C3	0.08980	. A
C2	H1	0.07285	. A
C3	C4	0.09018	. A
C3	C6	0.10043	. A
C4	C5	0.08958	. A
C4	H3	0.07295	. A
C5	H2	0.07232	. A
C6	C8	0.10046	. A
C6	N3	0.09892	. A
C6	H6	0.07320	. A
C7	H13	0.07311	. A
C7	H14	0.07294	. A
C7	H15	0.07312	. A
C7	O1	0.09577	. A
C8	N1	0.09639	. A
C8	H4	0.07300	. A
C8	H5	0.07290	. A
N1	N2	0.09127	. A
N1	C9	0.09619	. A
N2	N3	0.08292	. A
C9	C10	0.10121	. A
C9	N5	0.09733	. A
C9	H12	0.07276	. A
C10	C11	0.10171	. A
C10	H9	0.07310	. A
C10	H11	0.07305	. A
C11	N4	0.09795	. A
C11	N6	0.09853	. A
C11	H10	0.07308	. A
N4	N5	0.09424	. A
N4	H8	0.06823	. A
N5	H7	0.06805	. A
N6	N7	0.08369	. A
