data_tobacco_crystal_2_PM
_symmetry_space_group_name_H-M	'P1'
_cell_length_a	15.000000
_cell_length_b	15.000000
_cell_length_c	15.000000
_cell_angle_alpha	90.000000
_cell_angle_beta	90.000000
_cell_angle_gamma	90.000000
_symmetry_Int_Tables_number 1

loop_
_symmetry_equiv_pos_as_xyz
'x,y,z'

loop_
_atom_site_label
_atom_site_type_symbol
_atom_site_fract_x
_atom_site_fract_y
_atom_site_fract_z
X1	C	0.028836	-0.346655	0.019022
C1	C	-0.052430	-0.309055	0.010622
C2	C	-0.060897	-0.220855	-0.002911
C3	C	0.011103	-0.166721	-0.009378
C4	C	0.092903	-0.204388	0.003822
C5	C	0.101970	-0.293521	0.018822
C6	C	-0.000697	-0.070121	-0.040778
H1	H	-0.128230	-0.195521	-0.011644
H2	H	-0.112830	-0.349588	0.012689
C7	C	0.188303	-0.331788	0.031222
Cl1	Cl	0.188836	-0.137788	-0.003311
N1	N	0.255370	-0.369588	0.035556
O1	O	0.037303	-0.002121	0.015489
C8	C	-0.076630	0.064212	-0.071911
C9	C	-0.094497	-0.033721	-0.052844
C10	C	0.029370	0.163679	0.030889
H3	H	-0.132164	-0.066255	-0.105978
H4	H	-0.072830	0.075812	-0.143778
H5	H	-0.131897	0.104412	-0.047644
H6	H	-0.132364	-0.038855	0.009622
H7	H	0.063570	0.086612	-0.084444
C11	C	0.014970	0.081612	-0.029711
H8	H	0.033370	-0.066721	-0.105711
O2	O	0.086170	0.228212	-0.014111
C12	C	-0.031897	0.312679	0.035422
C13	C	-0.050764	0.217545	0.063956
H9	H	-0.116030	0.196745	0.040022
H10	H	-0.056097	0.362012	0.083556
H11	H	-0.064364	0.326012	-0.028711
H12	H	-0.054097	0.213212	0.136822
H13	H	0.100503	0.315012	0.090889
C14	C	0.068370	0.313479	0.025156
H14	H	0.067770	0.142012	0.089289

loop_
_geom_bond_atom_site_label_1
_geom_bond_atom_site_label_2
_geom_bond_distance
_ccdc_geom_bond_type
X1	C1	0.08994	. A
X1	C5	0.09040	. A
C1	C2	0.08963	. A
C1	H2	0.07277	. A
C2	C3	0.09031	. A
C2	H1	0.07247	. A
C3	C4	0.09102	. A
C3	C6	0.10226	. A
C4	C5	0.09084	. A
C4	Cl1	0.11700	. A
C5	C7	0.09524	. A
C6	O1	0.09609	. A
C6	C9	0.10134	. A
C6	H8	0.07341	. A
C7	N1	0.07711	. A
O1	C11	0.09774	. A
C8	C9	0.10136	. A
C8	H4	0.07290	. A
C8	H5	0.07252	. A
C8	C11	0.10234	. A
C9	H3	0.07280	. A
C9	H6	0.07323	. A
C10	C11	0.10303	. A
C10	O2	0.09703	. A
C10	C13	0.10206	. A
C10	H14	0.07317	. A
H7	C11	0.07337	. A
O2	C14	0.09555	. A
C12	C13	0.10110	. A
C12	H10	0.07305	. A
C12	H11	0.07311	. A
C12	C14	0.10079	. A
C13	H9	0.07256	. A
C13	H12	0.07307	. A
H13	C14	0.07318	. A
