data_tobacco_crystal_2_PM
_symmetry_space_group_name_H-M	'P1'
_cell_length_a	15.000000
_cell_length_b	15.000000
_cell_length_c	15.000000
_cell_angle_alpha	90.000000
_cell_angle_beta	90.000000
_cell_angle_gamma	90.000000
_symmetry_Int_Tables_number 1

loop_
_symmetry_equiv_pos_as_xyz
'x,y,z'

loop_
_atom_site_label
_atom_site_type_symbol
_atom_site_fract_x
_atom_site_fract_y
_atom_site_fract_z
X1	C	0.013163	-0.434227	-0.017250
C1	C	-0.068570	-0.398961	-0.000517
C2	C	-0.072437	-0.309761	0.015750
C3	C	0.000163	-0.254361	0.014683
C4	C	0.079897	-0.293627	-0.001917
C5	C	0.086230	-0.381427	-0.018184
C6	C	-0.012303	-0.152227	0.031150
H1	H	-0.137303	-0.280361	0.028750
C7	C	-0.150903	-0.460227	-0.000650
H2	H	0.151497	-0.410227	-0.032984
H3	H	0.140430	-0.253561	-0.004517
C8	C	-0.243570	-0.420094	0.011883
H4	H	-0.260237	-0.374627	-0.042717
H5	H	-0.293503	-0.473561	0.011616
H6	H	-0.249703	-0.384761	0.075350
H7	H	-0.153903	-0.495827	-0.064450
H8	H	-0.142037	-0.510694	0.051750
C9	C	0.063097	-0.077827	0.032750
C10	C	0.028763	-0.000427	-0.026784
N1	N	-0.068437	-0.021627	-0.030117
N2	N	-0.072770	-0.116494	-0.037450
C11	C	0.033163	0.104173	-0.013384
H9	H	-0.135970	-0.140427	-0.029050
H10	H	-0.095237	-0.000294	0.029283
H11	H	0.074563	-0.055627	0.101350
H12	H	0.056430	-0.012494	-0.093650
H13	H	0.125963	-0.103427	0.005883
H14	H	-0.045437	-0.147227	0.096483
C12	C	0.113563	0.168573	-0.005317
C13	C	0.060830	0.257573	-0.012050
N3	N	-0.011437	0.241973	0.053283
N4	N	-0.029437	0.144173	0.052750
C14	C	0.099497	0.354106	-0.018450
H15	H	-0.092703	0.134439	0.028283
H16	H	0.009963	0.262039	0.115083
H17	H	0.161430	0.160973	-0.059717
H18	H	0.027363	0.254839	-0.077450
H19	H	0.148030	0.162306	0.058950
H20	H	0.004763	0.123239	-0.078650
O1	O	0.162430	0.390906	0.043950
C15	C	0.074363	0.511773	-0.007384
C16	C	0.025230	0.424439	-0.017117
H21	H	-0.017303	0.416439	0.041816
H22	H	0.073563	0.551039	-0.069050
H23	H	0.042963	0.553239	0.044150
H24	H	-0.017237	0.422573	-0.076250
H25	H	0.210763	0.484439	-0.043384
C17	C	0.169297	0.484039	0.017150
H26	H	0.133030	0.357106	-0.083650

loop_
_geom_bond_atom_site_label_1
_geom_bond_atom_site_label_2
_geom_bond_distance
_ccdc_geom_bond_type
X1	C1	0.09058	. A
X1	C5	0.09015	. A
X1	C15	0.08221	. A
X1	H22	0.08092	. A
X1	H23	0.06939	. A
C1	C2	0.09075	. A
C1	C7	0.10263	. A
C2	C3	0.09133	. A
C2	H1	0.07240	. A
C3	C4	0.09041	. A
C3	C6	0.10420	. A
C4	C5	0.08952	. A
C4	H3	0.07264	. A
C5	H2	0.07286	. A
C5	C15	0.10800	. A
C5	H22	0.08549	. A
C5	H23	0.10013	. A
C6	C9	0.10594	. A
C6	N2	0.09818	. A
C6	H14	0.07343	. A
C7	C8	0.10176	. A
C7	H7	0.07312	. A
C7	H8	0.07329	. A
C8	H4	0.07298	. A
C8	H5	0.07316	. A
C8	H6	0.07290	. A
C9	C10	0.10351	. A
C9	H11	0.07301	. A
C9	H13	0.07300	. A
C10	N1	0.09954	. A
C10	C11	0.10555	. A
C10	H12	0.07336	. A
N1	N2	0.09525	. A
N1	H10	0.06857	. A
N2	H9	0.06810	. A
C11	C12	0.10333	. A
C11	N4	0.09946	. A
C11	H20	0.07369	. A
C12	C13	0.10367	. A
C12	H17	0.07286	. A
C12	H19	0.07319	. A
C13	N3	0.09866	. A
C13	C14	0.10419	. A
C13	H18	0.07352	. A
N3	N4	0.09944	. A
N3	H16	0.06841	. A
N4	H15	0.06853	. A
C14	O1	0.09596	. A
C14	C16	0.10229	. A
C14	H26	0.07338	. A
O1	C17	0.09716	. A
C15	C16	0.10068	. A
C15	H22	0.07311	. A
C15	H23	0.07322	. A
C15	C17	0.10190	. A
C16	H21	0.07312	. A
C16	H24	0.07283	. A
H25	C17	0.07338	. A
