data_tobacco_crystal_2_PM
_symmetry_space_group_name_H-M	'P1'
_cell_length_a	15.000000
_cell_length_b	15.000000
_cell_length_c	15.000000
_cell_angle_alpha	90.000000
_cell_angle_beta	90.000000
_cell_angle_gamma	90.000000
_symmetry_Int_Tables_number 1

loop_
_symmetry_equiv_pos_as_xyz
'x,y,z'

loop_
_atom_site_label
_atom_site_type_symbol
_atom_site_fract_x
_atom_site_fract_y
_atom_site_fract_z
X1	C	0.014825	-0.267521	0.006867
C1	C	-0.066909	-0.232788	-0.003800
C2	C	-0.080909	-0.143854	-0.008467
C3	C	-0.010109	-0.086254	-0.003733
C4	C	0.071625	-0.122654	0.012333
C5	C	0.084491	-0.211654	0.018733
C6	C	-0.014109	0.014612	-0.023200
Br1	Br	-0.202309	-0.114454	-0.027000
H1	H	-0.123509	-0.277788	-0.011600
N1	N	0.172491	-0.245321	0.035133
H2	H	0.128825	-0.078054	0.017533
H3	H	0.216825	-0.197388	0.054133
H4	H	0.173291	-0.294121	0.083000
O1	O	0.049158	0.074412	0.022200
C7	C	-0.076042	0.160812	-0.012067
C8	C	-0.101575	0.064279	-0.013267
C9	C	0.067358	0.245079	0.020200
H5	H	-0.146909	0.052412	-0.068867
H6	H	-0.104242	0.197679	-0.068400
H7	H	-0.101975	0.190012	0.049733
H8	H	-0.134375	0.048212	0.050067
H9	H	0.047825	0.157612	-0.085067
C10	C	0.025358	0.160479	-0.015333
H10	H	0.005225	0.017812	-0.094000
C11	C	0.018825	0.320812	0.024267
H11	H	-0.052775	0.320079	0.014667
H12	H	0.139625	0.247546	0.025933

loop_
_geom_bond_atom_site_label_1
_geom_bond_atom_site_label_2
_geom_bond_distance
_ccdc_geom_bond_type
X1	C1	0.08945	. A
X1	C5	0.09009	. A
C1	C2	0.09015	. A
C1	H1	0.07273	. A
C2	C3	0.09139	. A
C2	Br1	0.12628	. A
C3	C4	0.09090	. A
C3	C6	0.10281	. A
C4	C5	0.09015	. A
C4	H2	0.07272	. A
C5	N1	0.09564	. A
C6	O1	0.09818	. A
C6	C8	0.10107	. A
C6	H10	0.07346	. A
N1	H3	0.06800	. A
N1	H4	0.06836	. A
O1	C10	0.09686	. A
C7	C8	0.09986	. A
C7	H6	0.07299	. A
C7	H7	0.07311	. A
C7	C10	0.10145	. A
C8	H5	0.07271	. A
C8	H8	0.07311	. A
C9	C10	0.10091	. A
C9	C11	0.09004	. A
C9	H12	0.07254	. A
H9	C10	0.07332	. A
C11	H11	0.07224	. A
