data_tobacco_crystal_2_PM
_symmetry_space_group_name_H-M	'P1'
_cell_length_a	15.000000
_cell_length_b	15.000000
_cell_length_c	15.000000
_cell_angle_alpha	90.000000
_cell_angle_beta	90.000000
_cell_angle_gamma	90.000000
_symmetry_Int_Tables_number 1

loop_
_symmetry_equiv_pos_as_xyz
'x,y,z'

loop_
_atom_site_label
_atom_site_type_symbol
_atom_site_fract_x
_atom_site_fract_y
_atom_site_fract_z
X1	C	0.017712	-0.326262	0.003250
C1	C	-0.053821	-0.271262	0.000517
C2	C	-0.043421	-0.182195	-0.009217
C3	C	0.038712	-0.145929	-0.016217
C4	C	0.109645	-0.201062	-0.012950
C5	C	0.099779	-0.290129	-0.003350
C6	C	0.054979	-0.050795	-0.030350
H1	H	-0.103088	-0.140929	-0.012283
H2	H	-0.121288	-0.297995	0.005383
H3	H	0.160445	-0.328995	-0.001750
H4	H	0.176912	-0.174329	-0.018283
C7	C	0.007312	0.016271	0.004917
C8	C	0.025579	0.112605	-0.000017
H5	H	-0.050421	-0.000395	0.045650
H6	H	0.113512	-0.035262	-0.070217
C9	C	-0.043021	0.169138	-0.019683
C10	C	-0.031355	0.258271	-0.015483
C11	C	0.047845	0.293405	0.007383
C12	C	0.117112	0.238738	0.023450
C13	C	0.106179	0.149405	0.020517
H7	H	-0.087421	0.301338	-0.031017
C14	C	-0.186755	0.109738	0.012317
Cl1	Cl	0.200645	0.086405	0.046450
H8	H	0.181979	0.266738	0.039983
H9	H	-0.163888	0.118605	0.080983
H10	H	-0.200555	0.039138	0.000050
H11	H	-0.248955	0.146605	0.002783
O1	O	-0.124355	0.139138	-0.052817

loop_
_geom_bond_atom_site_label_1
_geom_bond_atom_site_label_2
_geom_bond_distance
_ccdc_geom_bond_type
X1	C1	0.09027	. A
X1	C5	0.08991	. A
C1	C2	0.09020	. A
C1	H2	0.07273	. A
C2	C3	0.09006	. A
C2	H1	0.07261	. A
C3	C4	0.08990	. A
C3	C6	0.09754	. A
C4	C5	0.09012	. A
C4	H4	0.07258	. A
C5	H3	0.07207	. A
C6	C7	0.08952	. A
C6	H6	0.07250	. A
C7	C8	0.09817	. A
C7	H5	0.07260	. A
C8	C9	0.09104	. A
C8	C13	0.09095	. A
C9	C10	0.08999	. A
C9	O1	0.09281	. A
C10	C11	0.08961	. A
C10	H7	0.07238	. A
C11	C12	0.08969	. A
C12	C13	0.09005	. A
C12	H8	0.07256	. A
C13	Cl1	0.11647	. A
C14	H9	0.07292	. A
C14	H10	0.07297	. A
C14	H11	0.07293	. A
C14	O1	0.09487	. A
