data_tobacco_crystal_2_PM
_symmetry_space_group_name_H-M	'P1'
_cell_length_a	15.000000
_cell_length_b	15.000000
_cell_length_c	15.000000
_cell_angle_alpha	90.000000
_cell_angle_beta	90.000000
_cell_angle_gamma	90.000000
_symmetry_Int_Tables_number 1

loop_
_symmetry_equiv_pos_as_xyz
'x,y,z'

loop_
_atom_site_label
_atom_site_type_symbol
_atom_site_fract_x
_atom_site_fract_y
_atom_site_fract_z
X1	C	-0.017275	-0.223855	-0.031632
C1	C	-0.089875	-0.172388	-0.047032
C2	C	-0.081141	-0.082721	-0.047299
C3	C	-0.003475	-0.039321	-0.029432
C4	C	0.069792	-0.091988	-0.016299
C5	C	0.061592	-0.182255	-0.018366
C6	C	-0.005608	0.062879	-0.012166
H1	H	-0.141941	-0.045255	-0.058699
C7	C	-0.232741	-0.197855	0.011834
H2	H	0.121059	-0.220721	-0.004366
C8	C	0.161925	-0.056588	0.006168
H3	H	-0.279541	-0.144055	-0.003566
H4	H	-0.198475	-0.183255	0.074768
H5	H	-0.270741	-0.259521	0.020568
O1	O	-0.173408	-0.209321	-0.061966
C9	C	0.166859	-0.022921	0.101768
H6	H	0.140925	-0.072721	0.148368
H7	H	0.235859	-0.008055	0.119901
H8	H	0.128459	0.038145	0.111368
H9	H	0.212125	-0.109521	-0.001099
H10	H	0.182725	-0.006121	-0.042299
C10	C	0.063125	0.133079	-0.043032
C11	C	0.022459	0.216612	-0.000632
N1	N	-0.074675	0.202545	-0.006166
N2	N	-0.087275	0.111612	-0.039099
C12	C	0.046459	0.305745	-0.032632
H11	H	-0.141808	0.083879	-0.009299
H12	H	-0.102408	0.248079	-0.048766
H13	H	0.130259	0.122812	-0.016766
H14	H	0.040192	0.215412	0.070501
H15	H	0.067659	0.137612	-0.115966
H16	H	-0.005941	0.064612	0.061301
C13	C	0.054859	0.385412	-0.039966

loop_
_geom_bond_atom_site_label_1
_geom_bond_atom_site_label_2
_geom_bond_distance
_ccdc_geom_bond_type
X1	C1	0.09031	. A
X1	C5	0.09015	. A
C1	C2	0.09009	. A
C1	O1	0.09255	. A
C2	C3	0.09075	. A
C2	H1	0.07232	. A
C3	C4	0.09118	. A
C3	C6	0.10367	. A
C4	C5	0.09066	. A
C4	C8	0.10122	. A
C5	H2	0.07219	. A
C6	C10	0.10298	. A
C6	N2	0.09884	. A
C6	H16	0.07349	. A
C7	H3	0.07295	. A
C7	H4	0.07313	. A
C7	H5	0.07296	. A
C7	O1	0.09539	. A
C8	C9	0.10147	. A
C8	H9	0.07331	. A
C8	H10	0.07300	. A
C9	H6	0.07297	. A
C9	H7	0.07288	. A
C9	H8	0.07277	. A
C10	C11	0.10212	. A
C10	H13	0.07282	. A
C10	H15	0.07321	. A
C11	N1	0.09830	. A
C11	C12	0.09770	. A
C11	H14	0.07332	. A
N1	N2	0.09753	. A
N1	H12	0.06824	. A
N2	H11	0.06805	. A
C12	C13	0.08044	. A
