data_tobacco_crystal_2_PM
_symmetry_space_group_name_H-M	'P1'
_cell_length_a	15.000000
_cell_length_b	15.000000
_cell_length_c	15.000000
_cell_angle_alpha	90.000000
_cell_angle_beta	90.000000
_cell_angle_gamma	90.000000
_symmetry_Int_Tables_number 1

loop_
_symmetry_equiv_pos_as_xyz
'x,y,z'

loop_
_atom_site_label
_atom_site_type_symbol
_atom_site_fract_x
_atom_site_fract_y
_atom_site_fract_z
X1	C	0.015813	-0.092731	-0.017482
C1	C	-0.064187	-0.048397	-0.007082
C2	C	-0.063121	0.041003	0.004518
C3	C	0.011613	0.090136	0.002318
C4	C	0.088746	0.046003	-0.007615
C5	C	0.093679	-0.043997	-0.015749
N1	N	0.012146	0.181603	0.010318
H1	H	-0.124654	0.077469	0.015318
C6	C	-0.156654	-0.092931	-0.009815
C7	C	0.189479	-0.077464	-0.021149
H2	H	0.148946	0.086603	-0.008482
N2	N	-0.053187	0.220803	-0.023415
C8	C	-0.043787	0.308869	-0.015082
C9	C	0.216346	-0.138064	0.055918
H3	H	0.236413	-0.098264	0.113718
H4	H	0.162813	-0.182397	0.077785
H5	H	0.273279	-0.179264	0.036251
H6	H	0.237213	-0.021731	-0.020482
H7	H	0.201613	-0.107797	-0.086482
C10	C	-0.034921	0.388136	-0.010549
C11	C	-0.239521	-0.032997	-0.012215
H8	H	-0.236254	0.014869	-0.067349
H9	H	-0.247654	0.003603	0.050451
H10	H	-0.299454	-0.073397	-0.021815
H11	H	-0.160787	-0.133531	-0.070482
H12	H	-0.163921	-0.136131	0.048651

loop_
_geom_bond_atom_site_label_1
_geom_bond_atom_site_label_2
_geom_bond_distance
_ccdc_geom_bond_type
X1	C1	0.09205	. A
X1	C5	0.09188	. A
C1	C2	0.09016	. A
C1	C6	0.10267	. A
C2	C3	0.08947	. A
C2	H1	0.07234	. A
C3	C4	0.08942	. A
C3	N1	0.09182	. A
C4	C5	0.09050	. A
C4	H2	0.07262	. A
C5	C7	0.10162	. A
N1	N2	0.08332	. A
C6	C11	0.10230	. A
C6	H11	0.07312	. A
C6	H12	0.07306	. A
C7	C9	0.10165	. A
C7	H6	0.07338	. A
C7	H7	0.07305	. A
N2	C8	0.08896	. A
C8	C10	0.07989	. A
C9	H3	0.07299	. A
C9	H4	0.07287	. A
C9	H5	0.07298	. A
C11	H8	0.07309	. A
C11	H9	0.07303	. A
C11	H10	0.07291	. A
