data_tobacco_crystal_2_PM
_symmetry_space_group_name_H-M	'P1'
_cell_length_a	15.000000
_cell_length_b	15.000000
_cell_length_c	15.000000
_cell_angle_alpha	90.000000
_cell_angle_beta	90.000000
_cell_angle_gamma	90.000000
_symmetry_Int_Tables_number 1

loop_
_symmetry_equiv_pos_as_xyz
'x,y,z'

loop_
_atom_site_label
_atom_site_type_symbol
_atom_site_fract_x
_atom_site_fract_y
_atom_site_fract_z
X1	C	0.051596	-0.084414	0.038235
C1	C	-0.023337	-0.033481	0.031568
C2	C	-0.017537	0.053653	0.006168
C3	C	0.064196	0.090919	-0.005765
C4	C	0.138663	0.040253	-0.000898
C5	C	0.131996	-0.046947	0.019502
C6	C	-0.102804	0.105586	-0.010365
C7	C	-0.158604	-0.109147	-0.004432
O1	O	0.211063	-0.095947	0.022835
O2	O	0.224463	0.073386	-0.015565
H1	H	-0.209137	-0.063214	-0.029898
H2	H	-0.119337	-0.136214	-0.059565
H3	H	-0.193870	-0.163614	0.029035
O3	O	-0.105670	-0.064547	0.060635
H4	H	0.224330	0.134986	-0.037432
H5	H	0.260930	-0.057014	0.005768
H6	H	-0.092270	0.166519	-0.048965
H7	H	-0.136737	0.122319	0.051902
H8	H	-0.147937	0.066919	-0.052765

loop_
_geom_bond_atom_site_label_1
_geom_bond_atom_site_label_2
_geom_bond_distance
_ccdc_geom_bond_type
X1	C1	0.09085	. A
X1	C5	0.09066	. A
C1	C2	0.09095	. A
C1	O3	0.09268	. A
C2	C3	0.09062	. A
C2	C6	0.10120	. A
C3	C4	0.09020	. A
C4	C5	0.08980	. A
C4	O2	0.09314	. A
C5	O1	0.09308	. A
C6	H6	0.07290	. A
C6	H7	0.07286	. A
C6	H8	0.07301	. A
C7	H1	0.07288	. A
C7	H2	0.07290	. A
C7	H3	0.07301	. A
C7	O3	0.09500	. A
O1	H5	0.06553	. A
O2	H4	0.06537	. A
