data_tobacco_crystal_2_PM
_symmetry_space_group_name_H-M	'P1'
_cell_length_a	15.000000
_cell_length_b	15.000000
_cell_length_c	15.000000
_cell_angle_alpha	90.000000
_cell_angle_beta	90.000000
_cell_angle_gamma	90.000000
_symmetry_Int_Tables_number 1

loop_
_symmetry_equiv_pos_as_xyz
'x,y,z'

loop_
_atom_site_label
_atom_site_type_symbol
_atom_site_fract_x
_atom_site_fract_y
_atom_site_fract_z
X1	C	-0.042320	-0.464119	0.011483
H1	H	0.068480	-0.584919	-0.022650
C1	C	-0.116387	-0.412319	0.009750
C2	C	-0.107520	-0.322719	0.003550
C3	C	-0.027387	-0.279119	0.001216
C4	C	0.045346	-0.332719	0.005616
C5	C	0.038346	-0.423119	0.010216
C6	C	-0.023120	-0.174785	-0.014517
H2	H	-0.170387	-0.286585	0.001216
O1	O	-0.202720	-0.446785	0.011550
H3	H	0.099813	-0.460919	0.012083
H4	H	0.111613	-0.302852	0.000883
C7	C	0.049280	-0.100785	0.012683
C8	C	0.003280	-0.012785	-0.023850
N1	N	-0.093587	-0.036319	-0.010250
N2	N	-0.100387	-0.126985	0.021683
C9	C	0.015146	0.099681	-0.023784
H5	H	-0.158720	-0.154919	0.000816
H6	H	-0.120720	0.003281	0.038016
H7	H	0.059080	-0.100052	0.085216
H8	H	0.014346	-0.023852	-0.095650
H9	H	0.112746	-0.115185	-0.020317
H10	H	-0.027520	-0.171719	-0.087850
O2	O	0.089013	0.161015	-0.000117
C10	C	-0.048520	0.240615	0.016683
C11	C	-0.066987	0.143415	0.016550
C12	C	0.073880	0.345148	-0.020050
H11	H	-0.126454	0.130548	-0.023850
H12	H	-0.085587	0.275148	0.069150
H13	H	-0.070654	0.267881	-0.047584
H14	H	-0.078120	0.121415	0.085083
H15	H	0.069546	0.257348	0.098350
C13	C	0.052146	0.250948	0.027683
H16	H	0.011413	0.113015	-0.095850
C14	C	0.154746	0.403681	0.000283
N3	N	0.113946	0.492215	0.006483
N4	N	0.024746	0.487681	0.015616
N5	N	0.000013	0.408748	0.005950
H17	H	0.204413	0.404881	-0.053117
H18	H	0.186946	0.390015	0.064150
H19	H	0.068813	0.336881	-0.092517

loop_
_geom_bond_atom_site_label_1
_geom_bond_atom_site_label_2
_geom_bond_distance
_ccdc_geom_bond_type
X1	C1	0.09040	. A
X1	C5	0.09050	. A
X1	N4	0.08269	. A
H1	C12	0.07019	. A
H1	N5	0.07447	. A
C1	C2	0.09025	. A
C1	O1	0.09298	. A
C2	C3	0.09126	. A
C2	H2	0.07255	. A
C3	C4	0.09046	. A
C3	C6	0.10560	. A
C4	C5	0.09079	. A
C4	H4	0.07284	. A
C5	H3	0.07218	. A
C5	N3	0.11357	. A
C5	N4	0.09039	. A
C6	C7	0.10704	. A
C6	N2	0.09780	. A
C6	H10	0.07353	. A
H3	N3	0.04927	. A
C7	C8	0.10580	. A
C7	H7	0.07320	. A
C7	H9	0.07297	. A
C8	N1	0.10061	. A
C8	C9	0.11309	. A
C8	H8	0.07349	. A
N1	N2	0.09637	. A
N1	H6	0.06807	. A
N2	H5	0.06796	. A
C9	O2	0.09888	. A
C9	C11	0.10142	. A
C9	H16	0.07338	. A
O2	C13	0.10109	. A
C10	C11	0.09894	. A
C10	H12	0.07293	. A
C10	H13	0.07324	. A
C10	C13	0.10179	. A
C11	H11	0.07303	. A
C11	H14	0.07283	. A
C12	C13	0.10782	. A
C12	C14	0.10188	. A
C12	N5	0.10088	. A
C12	H19	0.07311	. A
H15	C13	0.07306	. A
C14	N3	0.09768	. A
C14	H17	0.07294	. A
C14	H18	0.07282	. A
N3	N4	0.08978	. A
N4	N5	0.08328	. A
