data_tobacco_crystal_2_PM
_symmetry_space_group_name_H-M	'P1'
_cell_length_a	15.000000
_cell_length_b	15.000000
_cell_length_c	15.000000
_cell_angle_alpha	90.000000
_cell_angle_beta	90.000000
_cell_angle_gamma	90.000000
_symmetry_Int_Tables_number 1

loop_
_symmetry_equiv_pos_as_xyz
'x,y,z'

loop_
_atom_site_label
_atom_site_type_symbol
_atom_site_fract_x
_atom_site_fract_y
_atom_site_fract_z
X1	C	0.034253	-0.229192	0.012183
C1	C	-0.044481	-0.183392	0.019717
C2	C	-0.046947	-0.091192	0.021183
C3	C	0.029186	-0.040658	0.015717
C4	C	0.105119	-0.089525	0.010650
C5	C	0.109853	-0.179392	0.009317
C6	C	0.036853	0.063475	0.012983
C7	C	-0.183681	-0.050325	-0.044617
Br1	Br	-0.157414	-0.245525	0.028583
Br2	Br	0.228853	-0.223725	0.004583
H1	H	0.168919	-0.056125	0.007583
H2	H	-0.166414	-0.103258	-0.091817
H3	H	-0.252547	-0.059725	-0.022550
H4	H	-0.178147	0.013275	-0.079283
O1	O	-0.128614	-0.048458	0.033117
C8	C	-0.033147	0.121942	0.011783
C9	C	-0.022681	0.212008	0.005783
C10	C	0.058986	0.248608	0.001450
C11	C	0.129586	0.193475	0.003583
C12	C	0.118119	0.104675	0.009517
H5	H	-0.081481	0.254808	0.003983
H6	H	-0.101614	0.099608	0.015250
H7	H	0.180453	0.068208	0.010783
H8	H	0.196986	0.220408	0.000517

loop_
_geom_bond_atom_site_label_1
_geom_bond_atom_site_label_2
_geom_bond_distance
_ccdc_geom_bond_type
X1	C1	0.09140	. A
X1	C5	0.09057	. A
C1	C2	0.09224	. A
C2	C3	0.09154	. A
C2	O1	0.09294	. A
C3	C4	0.09044	. A
C3	C6	0.10445	. A
C4	C5	0.09000	. A
C4	H1	0.07208	. A
C6	C8	0.09121	. A
C6	C12	0.09118	. A
C7	H2	0.07299	. A
C7	H3	0.07292	. A
C7	H4	0.07265	. A
C7	O1	0.09528	. A
C8	C9	0.09087	. A
C8	H6	0.07210	. A
C9	C10	0.08960	. A
C9	H5	0.07275	. A
C10	C11	0.08960	. A
C11	C12	0.08973	. A
C11	H8	0.07265	. A
C12	H7	0.07223	. A
