data_tobacco_crystal_2_PM
_symmetry_space_group_name_H-M	'P1'
_cell_length_a	15.000000
_cell_length_b	15.000000
_cell_length_c	15.000000
_cell_angle_alpha	90.000000
_cell_angle_beta	90.000000
_cell_angle_gamma	90.000000
_symmetry_Int_Tables_number 1

loop_
_symmetry_equiv_pos_as_xyz
'x,y,z'

loop_
_atom_site_label
_atom_site_type_symbol
_atom_site_fract_x
_atom_site_fract_y
_atom_site_fract_z
X1	C	-0.001744	-0.473521	0.033467
C1	C	-0.076810	-0.424855	0.023800
C2	C	-0.072277	-0.336588	0.007600
C3	C	0.007456	-0.294521	-0.000467
C4	C	0.081923	-0.343121	0.015267
C5	C	0.077723	-0.431188	0.032667
C6	C	0.017323	-0.201788	-0.040467
H1	H	-0.134544	-0.301121	-0.004067
H2	H	-0.142077	-0.456921	0.025733
H3	H	0.140123	-0.466188	0.043067
H4	H	0.147190	-0.311921	0.009733
C7	C	0.034790	-0.116455	0.012333
N1	N	-0.002944	-0.053321	-0.051600
N2	N	-0.068744	-0.095188	-0.100733
N3	N	-0.063344	-0.177721	-0.092133
C8	C	-0.021944	0.040012	-0.039133
H5	H	0.105856	-0.103255	0.022067
H6	H	-0.001677	-0.113321	0.075333
H7	H	0.069923	-0.207388	-0.091267
O1	O	0.048723	0.102612	-0.016667
C9	C	-0.092544	0.162079	0.023467
C10	C	-0.094077	0.061479	0.027467
C11	C	0.033523	0.276945	0.001000
H8	H	-0.075744	0.038812	0.094467
H9	H	-0.099277	0.190812	0.090200
H10	H	-0.147810	0.186745	-0.017533
H11	H	-0.159010	0.033279	0.010200
H12	H	-0.015277	0.192345	-0.094200
C12	C	-0.002810	0.184879	-0.022067
H13	H	-0.044144	0.059612	-0.106333
C13	C	-0.027810	0.343612	0.000600
C14	C	-0.006010	0.429212	0.011667
C15	C	0.079990	0.452212	0.023200
C16	C	0.142256	0.387012	0.026200
C17	C	0.119590	0.300479	0.015733
H14	H	-0.058944	0.478745	0.008800
H15	H	-0.097944	0.329479	-0.011533
H16	H	0.171923	0.250345	0.016267
F1	F	0.229190	0.407679	0.037867

loop_
_geom_bond_atom_site_label_1
_geom_bond_atom_site_label_2
_geom_bond_distance
_ccdc_geom_bond_type
X1	C1	0.08998	. A
X1	C5	0.09004	. A
X1	C14	0.09977	. A
X1	C15	0.11091	. A
X1	H14	0.07848	. A
C1	C2	0.08986	. A
C1	H2	0.07274	. A
C1	H14	0.09918	. A
C2	C3	0.09051	. A
C2	H1	0.07260	. A
C3	C4	0.09030	. A
C3	C6	0.10147	. A
C4	C5	0.08987	. A
C4	H4	0.07255	. A
C5	H3	0.07230	. A
C5	C15	0.11701	. A
C6	C7	0.10186	. A
C6	N3	0.09877	. A
C6	H7	0.07334	. A
C7	N1	0.09745	. A
C7	H5	0.07293	. A
C7	H6	0.07286	. A
N1	N2	0.09218	. A
N1	C8	0.09606	. A
N2	N3	0.08316	. A
C8	O1	0.09704	. A
C8	C10	0.10050	. A
C8	H13	0.07344	. A
O1	C12	0.09722	. A
C9	C10	0.10069	. A
C9	H9	0.07297	. A
C9	H10	0.07310	. A
C9	C12	0.10318	. A
C10	H8	0.07307	. A
C10	H11	0.07287	. A
C11	C12	0.10163	. A
C11	C13	0.09059	. A
C11	C17	0.09043	. A
H12	C12	0.07358	. A
C13	C14	0.08902	. A
C13	H15	0.07256	. A
C14	C15	0.08977	. A
C14	H14	0.07255	. A
C15	C16	0.09021	. A
C16	C17	0.09006	. A
C16	F1	0.09011	. A
C17	H16	0.07247	. A
