data_tobacco_crystal_2_PM
_symmetry_space_group_name_H-M	'P1'
_cell_length_a	15.000000
_cell_length_b	15.000000
_cell_length_c	15.000000
_cell_angle_alpha	90.000000
_cell_angle_beta	90.000000
_cell_angle_gamma	90.000000
_symmetry_Int_Tables_number 1

loop_
_symmetry_equiv_pos_as_xyz
'x,y,z'

loop_
_atom_site_label
_atom_site_type_symbol
_atom_site_fract_x
_atom_site_fract_y
_atom_site_fract_z
X1	C	0.038862	-0.335864	0.005517
C1	C	-0.036605	-0.285731	0.000917
C2	C	-0.030471	-0.196064	-0.004417
C3	C	0.048995	-0.153931	-0.005083
C4	C	0.123395	-0.204131	-0.000683
C5	C	0.118595	-0.293464	0.004983
C6	C	0.059395	-0.057798	-0.011817
H1	H	-0.091805	-0.157864	-0.008283
O1	O	-0.120605	-0.323864	0.001250
H2	H	0.182195	-0.327198	0.009117
H3	H	0.188929	-0.172864	-0.001150
C7	C	-0.004071	0.003936	0.000783
C8	C	0.009062	0.100002	-0.001283
H4	H	-0.071805	-0.017198	0.015850
H5	H	0.126862	-0.036131	-0.026950
C9	C	-0.063671	0.153069	0.000183
C10	C	-0.058071	0.243136	0.002050
C11	C	0.024262	0.281136	0.000850
C12	C	0.097462	0.228536	-0.000550
C13	C	0.089995	0.139269	-0.000883
C14	C	-0.144605	0.294202	0.005650
H6	H	-0.129405	0.122402	0.000650
H7	H	0.151195	0.100669	-0.000350
H8	H	0.164395	0.256936	-0.000617
H9	H	-0.168938	-0.281531	-0.006150
H10	H	-0.202605	0.250136	-0.001083
H11	H	-0.149671	0.342536	-0.048683
H12	H	-0.151271	0.327669	0.070183

loop_
_geom_bond_atom_site_label_1
_geom_bond_atom_site_label_2
_geom_bond_distance
_ccdc_geom_bond_type
X1	C1	0.09072	. A
X1	C5	0.09031	. A
C1	C2	0.09003	. A
C1	O1	0.09225	. A
C2	C3	0.08995	. A
C2	H1	0.07236	. A
C3	C4	0.08986	. A
C3	C6	0.09693	. A
C4	C5	0.08964	. A
C4	H3	0.07261	. A
C5	H2	0.07211	. A
C6	C7	0.08943	. A
C6	H5	0.07246	. A
O1	H9	0.06468	. A
C7	C8	0.09698	. A
C7	H4	0.07254	. A
C8	C9	0.09005	. A
C8	C13	0.08996	. A
C9	C10	0.09026	. A
C9	H6	0.07254	. A
C10	C11	0.09069	. A
C10	C14	0.10054	. A
C11	C12	0.09015	. A
C12	C13	0.08958	. A
C12	H8	0.07271	. A
C13	H7	0.07236	. A
C14	H10	0.07315	. A
C14	H11	0.07290	. A
C14	H12	0.07300	. A
