data_tobacco_crystal_2_PM
_symmetry_space_group_name_H-M	'P1'
_cell_length_a	15.000000
_cell_length_b	15.000000
_cell_length_c	15.000000
_cell_angle_alpha	90.000000
_cell_angle_beta	90.000000
_cell_angle_gamma	90.000000
_symmetry_Int_Tables_number 1

loop_
_symmetry_equiv_pos_as_xyz
'x,y,z'

loop_
_atom_site_label
_atom_site_type_symbol
_atom_site_fract_x
_atom_site_fract_y
_atom_site_fract_z
X1	C	-0.062167	-0.198381	-0.013169
C1	C	-0.136900	-0.151047	0.003431
C2	C	-0.134500	-0.061581	0.010231
C3	C	-0.056900	-0.016181	-0.001503
C4	C	0.016700	-0.064647	-0.021369
C5	C	0.015833	-0.154714	-0.025236
C6	C	-0.051633	0.084153	0.013297
Cl1	Cl	-0.234033	-0.008847	0.038231
H1	H	-0.199967	-0.185514	0.013831
C7	C	0.161767	-0.179781	0.025497
H2	H	0.080033	-0.031581	-0.032569
C8	C	0.035767	0.133619	0.001364
N1	N	0.001700	0.218086	-0.026369
N2	N	-0.083100	0.212286	-0.058769
N3	N	-0.111167	0.134153	-0.047836
N4	N	0.042500	0.296153	-0.008303
H3	H	0.076633	0.109486	-0.054103
H4	H	0.075567	0.137619	0.062364
H5	H	-0.074300	0.097019	0.081964
H6	H	0.206233	-0.237181	0.032031
H7	H	0.132900	-0.166047	0.091231
H8	H	0.200767	-0.122714	0.002231
O1	O	0.094433	-0.202114	-0.038636
N5	N	0.003833	0.357753	-0.047836

loop_
_geom_bond_atom_site_label_1
_geom_bond_atom_site_label_2
_geom_bond_distance
_ccdc_geom_bond_type
X1	C1	0.09001	. A
X1	C5	0.09020	. A
C1	C2	0.08976	. A
C1	H1	0.07262	. A
C2	C3	0.09067	. A
C2	Cl1	0.11607	. A
C3	C4	0.09034	. A
C3	C6	0.10156	. A
C4	C5	0.09015	. A
C4	H2	0.07232	. A
C5	O1	0.09276	. A
C6	C8	0.10113	. A
C6	N3	0.09890	. A
C6	H5	0.07345	. A
C7	H6	0.07290	. A
C7	H7	0.07309	. A
C7	H8	0.07293	. A
C7	O1	0.09563	. A
C8	N1	0.09521	. A
C8	H3	0.07300	. A
C8	H4	0.07295	. A
N1	N2	0.09096	. A
N1	N4	0.08992	. A
N2	N3	0.08374	. A
N4	N5	0.08278	. A
