data_tobacco_crystal_2_PM
_symmetry_space_group_name_H-M	'P1'
_cell_length_a	15.000000
_cell_length_b	15.000000
_cell_length_c	15.000000
_cell_angle_alpha	90.000000
_cell_angle_beta	90.000000
_cell_angle_gamma	90.000000
_symmetry_Int_Tables_number 1

loop_
_symmetry_equiv_pos_as_xyz
'x,y,z'

loop_
_atom_site_label
_atom_site_type_symbol
_atom_site_fract_x
_atom_site_fract_y
_atom_site_fract_z
X1	C	0.005764	-0.561857	0.018588
C1	C	-0.077036	-0.526857	0.012122
C2	C	-0.088570	-0.438323	0.003055
C3	C	-0.017903	-0.382390	-0.000678
C4	C	0.064497	-0.417390	0.010055
C5	C	0.076364	-0.505990	0.019788
C6	C	-0.030703	-0.285190	-0.023345
H1	H	-0.156236	-0.413457	-0.004478
H2	H	-0.135636	-0.569790	0.012255
H3	H	0.144430	-0.529123	0.026855
H4	H	0.122497	-0.373923	0.008122
O1	O	0.041897	-0.226123	0.001388
C7	C	-0.087836	-0.139257	-0.001478
C8	C	-0.113236	-0.236457	0.010388
C9	C	0.057897	-0.059990	-0.004212
H5	H	-0.173236	-0.253457	-0.027412
H6	H	-0.096170	-0.103590	0.061855
H7	H	-0.129236	-0.105323	-0.051145
H8	H	-0.125903	-0.250190	0.080988
H9	H	0.012697	-0.147790	-0.104812
C10	C	0.009564	-0.142723	-0.031745
H10	H	-0.032970	-0.284790	-0.096812
C11	C	0.053964	0.008877	-0.061545
C12	C	0.057030	0.102077	-0.038545
H11	H	0.025964	-0.002323	-0.127678
H12	H	0.078364	-0.051990	0.065055
C13	C	-0.022103	0.144343	-0.031878
C14	C	-0.026236	0.231143	-0.011412
C15	C	0.048630	0.279410	0.003322
C16	C	0.128030	0.236877	-0.004812
C17	C	0.132630	0.149143	-0.024878
C18	C	0.043364	0.376010	0.033122
H13	H	-0.092103	0.260410	-0.005945
H14	H	-0.084036	0.108210	-0.042612
H15	H	0.197030	0.116743	-0.030212
H16	H	0.189697	0.273477	0.006055
O2	O	0.100964	0.436077	-0.014678
C19	C	-0.025036	0.519610	0.028455
C20	C	-0.047370	0.421477	0.026588
H17	H	-0.080370	0.406743	-0.037012
H18	H	-0.044770	0.550677	0.091522
H19	H	-0.061103	0.554277	-0.024812
H20	H	-0.092236	0.401677	0.080588
H21	H	0.107564	0.530810	0.082255
C21	C	0.075964	0.523077	0.016655
H22	H	0.065230	0.377143	0.103055

loop_
_geom_bond_atom_site_label_1
_geom_bond_atom_site_label_2
_geom_bond_distance
_ccdc_geom_bond_type
X1	C1	0.09013	. A
X1	C5	0.09004	. A
X1	C18	0.07406	. A
X1	O2	0.10087	. A
X1	C19	0.08765	. A
X1	C20	0.05626	. A
X1	H17	0.10722	. A
X1	H20	0.12156	. A
X1	C21	0.11021	. A
X1	H22	0.11997	. A
C1	C2	0.08974	. A
C1	H2	0.07264	. A
C1	C19	0.07162	. A
C1	C20	0.06131	. A
C1	H17	0.08267	. A
C1	H18	0.11557	. A
C1	H19	0.09056	. A
C1	H20	0.10013	. A
C2	C3	0.09020	. A
C2	H1	0.07248	. A
C2	C19	0.08032	. A
C2	H18	0.09933	. A
C2	H19	0.03982	. A
C3	C4	0.09017	. A
C3	C6	0.10063	. A
C3	C19	0.10249	. A
C3	H18	0.11706	. A
C3	H19	0.08037	. A
C4	C5	0.08992	. A
C4	H4	0.07251	. A
C4	C19	0.11101	. A
C4	H21	0.09875	. A
C4	C21	0.06099	. A
C5	H3	0.07224	. A
C5	C18	0.12325	. A
C5	O2	0.07176	. A
C5	C19	0.10494	. A
C5	H21	0.07893	. A
C5	C21	0.02924	. A
C6	O1	0.09681	. A
C6	C8	0.10161	. A
C6	H10	0.07350	. A
H2	H17	0.07767	. A
H3	O2	0.06947	. A
O1	C10	0.09539	. A
C7	C8	0.10116	. A
C7	H6	0.07316	. A
C7	H7	0.07302	. A
C7	C10	0.10205	. A
C8	H5	0.07292	. A
C8	H8	0.07303	. A
C9	C10	0.09969	. A
C9	C11	0.08970	. A
C9	H12	0.07267	. A
H9	C10	0.07331	. A
C11	C12	0.09605	. A
C11	H11	0.07268	. A
C12	C13	0.08996	. A
C12	C17	0.09010	. A
C13	C14	0.08928	. A
C13	H14	0.07250	. A
C14	C15	0.09029	. A
C14	H13	0.07228	. A
C15	C16	0.09044	. A
C15	C18	0.10123	. A
C16	C17	0.09012	. A
C16	H16	0.07253	. A
C17	H15	0.07229	. A
C18	O2	0.09597	. A
C18	C20	0.10170	. A
C18	H22	0.07328	. A
O2	C21	0.09579	. A
C19	C20	0.10066	. A
C19	H18	0.07302	. A
C19	H19	0.07307	. A
C19	C21	0.10175	. A
C20	H17	0.07315	. A
C20	H20	0.07295	. A
H21	C21	0.07322	. A
