data_tobacco_crystal_2_PM
_symmetry_space_group_name_H-M	'P1'
_cell_length_a	15.000000
_cell_length_b	15.000000
_cell_length_c	15.000000
_cell_angle_alpha	90.000000
_cell_angle_beta	90.000000
_cell_angle_gamma	90.000000
_symmetry_Int_Tables_number 1

loop_
_symmetry_equiv_pos_as_xyz
'x,y,z'

loop_
_atom_site_label
_atom_site_type_symbol
_atom_site_fract_x
_atom_site_fract_y
_atom_site_fract_z
X1	C	-0.010255	-0.369326	0.000000
C1	C	-0.088921	-0.325126	0.000000
C2	C	-0.089855	-0.235860	0.000000
C3	C	-0.011388	-0.193926	0.000000
C4	C	0.067412	-0.236860	0.000000
C5	C	0.067879	-0.325193	0.000000
C6	C	0.001545	-0.101126	0.000000
H1	H	-0.154055	-0.201460	0.000000
H2	H	-0.153055	-0.359060	0.000000
H3	H	0.133479	-0.353926	0.000000
H4	H	0.130679	-0.201126	0.000000
C7	C	-0.064388	-0.043460	0.000000
C8	C	-0.047321	0.051874	0.000000
H5	H	-0.133121	-0.068060	0.000000
H6	H	0.070479	-0.081193	0.000000
C9	C	0.043212	0.091340	0.000000
N1	N	0.025945	0.181474	0.000000
N2	N	-0.061255	0.202140	0.000000
N3	N	-0.104521	0.133674	0.000000
N4	N	0.086479	0.246540	0.000000
H7	H	0.116545	0.102940	0.000000
H8	H	0.087012	0.032740	0.000000
H9	H	-0.119188	0.044540	0.000000
N5	N	0.040212	0.313607	0.000000
C10	C	0.073345	0.395207	0.000000
C11	C	0.010479	0.457540	0.000000
H10	H	-0.061655	0.439740	0.000000
H11	H	0.144279	0.402340	0.000000

loop_
_geom_bond_atom_site_label_1
_geom_bond_atom_site_label_2
_geom_bond_distance
_ccdc_geom_bond_type
X1	C1	0.09023	. A
X1	C5	0.08974	. A
C1	C2	0.08927	. A
C1	H2	0.07256	. A
C2	C3	0.08897	. A
C2	H1	0.07284	. A
C3	C4	0.08974	. A
C3	C6	0.09370	. A
C4	C5	0.08833	. A
C4	H4	0.07266	. A
C5	H3	0.07162	. A
C6	C7	0.08759	. A
C6	H6	0.07176	. A
C7	C8	0.09685	. A
C7	H5	0.07300	. A
C7	H9	0.10367	. A
C8	C9	0.09876	. A
C8	N3	0.09982	. A
C8	H9	0.07224	. A
C9	N1	0.09177	. A
C9	H7	0.07425	. A
C9	H8	0.07316	. A
N1	N2	0.08962	. A
N1	N4	0.08887	. A
N1	H7	0.11990	. A
N2	N3	0.08099	. A
N3	H9	0.09033	. A
N4	N5	0.08148	. A
H7	H8	0.07616	. A
N5	C10	0.08807	. A
C10	C11	0.08853	. A
C10	H11	0.07129	. A
C11	H10	0.07430	. A
