data_tobacco_crystal_2_PM
_symmetry_space_group_name_H-M	'P1'
_cell_length_a	15.000000
_cell_length_b	15.000000
_cell_length_c	15.000000
_cell_angle_alpha	90.000000
_cell_angle_beta	90.000000
_cell_angle_gamma	90.000000
_symmetry_Int_Tables_number 1

loop_
_symmetry_equiv_pos_as_xyz
'x,y,z'

loop_
_atom_site_label
_atom_site_type_symbol
_atom_site_fract_x
_atom_site_fract_y
_atom_site_fract_z
X1	C	0.009700	-0.128217	-0.007344
C1	C	-0.071100	-0.088550	-0.002544
C2	C	-0.078700	0.000717	0.005856
C3	C	-0.005167	0.053717	0.010789
C4	C	0.076167	0.013783	0.003522
C5	C	0.082833	-0.075683	-0.006144
N1	N	-0.013233	0.143717	0.028189
Cl1	Cl	-0.185100	0.046717	0.011722
F1	F	-0.146433	-0.137883	-0.004611
H1	H	0.149300	-0.103150	-0.011611
Br1	Br	0.183833	0.079517	0.008722
N2	N	-0.002100	0.195317	-0.036544

loop_
_geom_bond_atom_site_label_1
_geom_bond_atom_site_label_2
_geom_bond_distance
_ccdc_geom_bond_type
X1	C1	0.09014	. A
X1	C5	0.09005	. A
C1	C2	0.08998	. A
C1	F1	0.09007	. A
C2	C3	0.09078	. A
C2	Cl1	0.11607	. A
C3	C4	0.09090	. A
C3	N1	0.09202	. A
C4	C5	0.09023	. A
C4	Br1	0.12625	. A
C5	H1	0.07213	. A
N1	N2	0.08353	. A
