data_tobacco_crystal_2_PM
_symmetry_space_group_name_H-M	'P1'
_cell_length_a	15.000000
_cell_length_b	15.000000
_cell_length_c	15.000000
_cell_angle_alpha	90.000000
_cell_angle_beta	90.000000
_cell_angle_gamma	90.000000
_symmetry_Int_Tables_number 1

loop_
_symmetry_equiv_pos_as_xyz
'x,y,z'

loop_
_atom_site_label
_atom_site_type_symbol
_atom_site_fract_x
_atom_site_fract_y
_atom_site_fract_z
X1	C	0.003664	-0.346871	0.008593
C1	C	-0.070602	-0.294405	0.005326
C2	C	-0.061202	-0.204538	-0.000940
C3	C	0.019398	-0.164738	-0.003874
C4	C	0.091931	-0.217405	0.001593
C5	C	0.084598	-0.306671	0.008326
N1	N	0.029531	-0.075405	-0.020874
H1	H	-0.120536	-0.162671	-0.005807
C6	C	-0.160136	-0.327605	0.006060
H2	H	0.147064	-0.342605	0.011593
H3	H	0.157664	-0.187005	-0.001140
N2	N	-0.000602	-0.020671	0.034193
C7	C	-0.008336	0.067795	-0.007407
C8	C	0.066131	0.132129	0.016393
C9	C	0.027598	0.217995	-0.022874
N3	N	-0.069536	0.210862	-0.006207
N4	N	-0.086336	0.118929	0.021393
C10	C	0.068331	0.305862	0.003526
H4	H	-0.142269	0.093262	-0.007807
H5	H	-0.086336	0.252062	0.045593
H6	H	0.129331	0.113262	-0.014874
H7	H	0.037264	0.213729	-0.095540
H8	H	0.076731	0.136795	0.088660
H9	H	-0.012002	0.060395	-0.080407
C11	C	0.022198	0.382862	0.005326
H10	H	-0.048669	0.384995	-0.008940
H11	H	0.140198	0.307262	0.013993
N5	N	-0.235069	-0.347605	0.006126

loop_
_geom_bond_atom_site_label_1
_geom_bond_atom_site_label_2
_geom_bond_distance
_ccdc_geom_bond_type
X1	C1	0.09099	. A
X1	C5	0.09037	. A
C1	C2	0.09057	. A
C1	C6	0.09549	. A
C2	C3	0.08994	. A
C2	H1	0.07278	. A
C3	C4	0.08980	. A
C3	N1	0.09150	. A
C4	C5	0.08982	. A
C4	H3	0.07247	. A
C5	H2	0.07214	. A
N1	N2	0.08328	. A
C6	N5	0.07756	. A
N2	C7	0.09806	. A
C7	C8	0.10124	. A
C7	N4	0.09761	. A
C7	H9	0.07347	. A
C8	C9	0.10198	. A
C8	H6	0.07299	. A
C8	H8	0.07319	. A
C9	N3	0.09881	. A
C9	C10	0.10038	. A
C9	H7	0.07343	. A
N3	N4	0.09745	. A
N3	H5	0.06829	. A
N4	H4	0.06812	. A
C10	C11	0.08978	. A
C10	H11	0.07264	. A
C11	H10	0.07232	. A
