data_tobacco_crystal_2_PM
_symmetry_space_group_name_H-M	'P1'
_cell_length_a	15.000000
_cell_length_b	15.000000
_cell_length_c	15.000000
_cell_angle_alpha	90.000000
_cell_angle_beta	90.000000
_cell_angle_gamma	90.000000
_symmetry_Int_Tables_number 1

loop_
_symmetry_equiv_pos_as_xyz
'x,y,z'

loop_
_atom_site_label
_atom_site_type_symbol
_atom_site_fract_x
_atom_site_fract_y
_atom_site_fract_z
X1	C	0.048589	-0.318490	0.014785
C1	C	-0.036144	-0.288624	0.018518
C2	C	-0.054877	-0.200824	0.017252
C3	C	0.010989	-0.138490	0.011118
C4	C	0.096123	-0.169690	0.012585
C5	C	0.114056	-0.257757	0.013985
C6	C	-0.001211	-0.039557	-0.013615
N1	N	-0.148611	-0.183357	0.018585
H1	H	-0.091277	-0.336557	0.019118
F1	F	0.200523	-0.283624	0.010318
H2	H	0.151723	-0.123157	0.007852
O1	O	0.049723	0.032843	0.029652
C7	C	-0.080077	0.097110	-0.025815
C8	C	-0.094811	-0.001290	-0.021948
C9	C	0.038523	0.209176	-0.006948
H3	H	-0.128811	-0.025224	-0.081682
H4	H	-0.110344	0.129043	-0.083748
H5	H	-0.112011	0.124643	0.034052
H6	H	-0.135677	-0.014890	0.036718
H7	H	0.050323	0.096976	-0.088815
C10	C	0.021189	0.109510	-0.022615
H8	H	0.025456	-0.040224	-0.082282
H9	H	-0.168877	-0.150890	-0.037615
H10	H	-0.164211	-0.139757	0.068452
C11	C	0.122723	0.257310	0.016318
N2	N	0.080456	0.342976	0.037452
N3	N	-0.003811	0.329710	0.070385
N4	N	-0.024211	0.249310	0.058652
H11	H	0.172189	0.263043	-0.036948
H12	H	0.153723	0.232976	0.078118
H13	H	0.018656	0.237776	-0.071882

loop_
_geom_bond_atom_site_label_1
_geom_bond_atom_site_label_2
_geom_bond_distance
_ccdc_geom_bond_type
X1	C1	0.08992	. A
X1	C5	0.08930	. A
C1	C2	0.08979	. A
C1	H1	0.07306	. A
C2	C3	0.09089	. A
C2	N1	0.09536	. A
C3	C4	0.09068	. A
C3	C6	0.10271	. A
C4	C5	0.08988	. A
C4	H2	0.07266	. A
C5	F1	0.09033	. A
C6	O1	0.09853	. A
C6	C8	0.10146	. A
C6	H8	0.07367	. A
N1	H9	0.06799	. A
N1	H10	0.06805	. A
O1	C10	0.09708	. A
C7	C8	0.09957	. A
C7	H4	0.07275	. A
C7	H5	0.07322	. A
C7	C10	0.10207	. A
C8	H3	0.07278	. A
C8	H6	0.07278	. A
C9	C10	0.10237	. A
C9	C11	0.09974	. A
C9	N4	0.09924	. A
C9	H13	0.07368	. A
H7	C10	0.07340	. A
C11	N2	0.09784	. A
C11	H11	0.07292	. A
C11	H12	0.07330	. A
N2	N3	0.09144	. A
N3	N4	0.08377	. A
