data_tobacco_crystal_2_PM
_symmetry_space_group_name_H-M	'P1'
_cell_length_a	15.000000
_cell_length_b	15.000000
_cell_length_c	15.000000
_cell_angle_alpha	90.000000
_cell_angle_beta	90.000000
_cell_angle_gamma	90.000000
_symmetry_Int_Tables_number 1

loop_
_symmetry_equiv_pos_as_xyz
'x,y,z'

loop_
_atom_site_label
_atom_site_type_symbol
_atom_site_fract_x
_atom_site_fract_y
_atom_site_fract_z
X1	C	-0.010497	-0.425953	0.015686
C1	C	-0.090497	-0.385019	0.012953
C2	C	-0.095697	-0.295953	0.005219
C3	C	-0.021897	-0.243753	-0.000714
C4	C	0.058237	-0.285019	0.007353
C5	C	0.063503	-0.374753	0.015486
C6	C	-0.040030	-0.146686	-0.023781
H1	H	-0.161963	-0.266286	0.000819
H2	H	-0.152230	-0.423219	0.014486
H3	H	0.129370	-0.404086	0.019886
Cl1	Cl	0.159303	-0.228753	0.003753
C7	C	0.028837	-0.073953	-0.036647
N1	N	-0.033163	-0.000153	-0.033581
N2	N	-0.098363	-0.018353	0.028419
N3	N	-0.100563	-0.101686	0.040219
C8	C	-0.000897	0.090714	-0.035247
H4	H	0.075837	-0.068486	0.019019
H5	H	0.064170	-0.079019	-0.100181
H6	H	-0.077230	-0.150419	-0.087181
C9	C	0.015570	0.168181	-0.025847
C10	C	0.017770	0.258047	0.011219
C11	C	0.098637	0.315781	-0.005114
C12	C	0.064770	0.404581	0.031953
N4	N	-0.034363	0.399981	0.023153
N5	N	-0.052097	0.316781	-0.023114
H7	H	-0.113497	0.291247	-0.008181
H8	H	-0.055963	0.455181	-0.011514
H9	H	0.116437	0.320514	-0.076114
H10	H	0.080637	0.409381	0.103153
H11	H	0.157237	0.291447	0.031019
H12	H	0.008637	0.249714	0.083419

loop_
_geom_bond_atom_site_label_1
_geom_bond_atom_site_label_2
_geom_bond_distance
_ccdc_geom_bond_type
X1	C1	0.08991	. A
X1	C5	0.08999	. A
C1	C2	0.08955	. A
C1	H2	0.07261	. A
C2	C3	0.09059	. A
C2	H1	0.07274	. A
C3	C4	0.09050	. A
C3	C6	0.10140	. A
C4	C5	0.09025	. A
C4	Cl1	0.11573	. A
C5	H3	0.07224	. A
C6	C7	0.10099	. A
C6	N3	0.09892	. A
C6	H6	0.07360	. A
C7	N1	0.09644	. A
C7	H4	0.07306	. A
C7	H5	0.07287	. A
N1	N2	0.09179	. A
N1	C8	0.09644	. A
N2	N3	0.08419	. A
C8	C9	0.07975	. A
C9	C10	0.09724	. A
C10	C11	0.10069	. A
C10	N5	0.09752	. A
C10	H12	0.07325	. A
C11	C12	0.10201	. A
C11	H9	0.07335	. A
C11	H11	0.07302	. A
C12	N4	0.09963	. A
C12	H10	0.07310	. A
N4	N5	0.09684	. A
N4	H8	0.06867	. A
N5	H7	0.06815	. A
