data_tobacco_crystal_2_PM
_symmetry_space_group_name_H-M	'P1'
_cell_length_a	15.000000
_cell_length_b	15.000000
_cell_length_c	15.000000
_cell_angle_alpha	90.000000
_cell_angle_beta	90.000000
_cell_angle_gamma	90.000000
_symmetry_Int_Tables_number 1

loop_
_symmetry_equiv_pos_as_xyz
'x,y,z'

loop_
_atom_site_label
_atom_site_type_symbol
_atom_site_fract_x
_atom_site_fract_y
_atom_site_fract_z
X1	C	0.026260	-0.376304	0.005936
C1	C	-0.053607	-0.337438	-0.007598
C2	C	-0.063607	-0.247771	-0.011931
C3	C	0.008060	-0.192838	0.002802
C4	C	0.088060	-0.233838	0.016269
C5	C	0.097793	-0.323104	0.016669
C6	C	0.005793	-0.092638	0.003202
Br1	Br	-0.180207	-0.210971	-0.045198
H1	H	-0.112073	-0.379771	-0.016598
H2	H	0.164393	-0.349171	0.026936
H3	H	0.148327	-0.194904	0.027069
C7	C	-0.062473	-0.044971	0.038136
C8	C	-0.066007	0.044229	0.033602
C9	C	0.000593	0.093429	-0.002398
C10	C	0.072460	0.047096	-0.031531
C11	C	0.074527	-0.042971	-0.029598
C12	C	-0.007007	0.192429	-0.005464
H4	H	-0.125273	0.075096	0.061336
F1	F	-0.130473	-0.084971	0.081469
H5	H	0.134260	-0.074638	-0.055598
H6	H	0.130460	0.081429	-0.058264
C13	C	-0.087673	0.232362	-0.010731
C14	C	-0.096807	0.321696	-0.008398
C15	C	-0.024607	0.373896	-0.003331
C16	C	0.056793	0.336362	-0.001464
C17	C	0.065660	0.246829	-0.002398
H7	H	-0.163940	0.349629	-0.010131
H8	H	-0.148740	0.193562	-0.015531
H9	H	0.132660	0.220096	0.000736
H10	H	0.116393	0.378162	0.002002

loop_
_geom_bond_atom_site_label_1
_geom_bond_atom_site_label_2
_geom_bond_distance
_ccdc_geom_bond_type
X1	C1	0.08985	. A
X1	C5	0.08979	. A
C1	C2	0.09033	. A
C1	H1	0.07274	. A
C2	C3	0.09149	. A
C3	C4	0.09090	. A
C3	C6	0.10023	. A
C4	C5	0.08980	. A
C4	H3	0.07256	. A
C5	H2	0.07225	. A
C6	C7	0.09029	. A
C6	C11	0.09092	. A
C7	C8	0.08938	. A
C7	F1	0.09001	. A
C8	C9	0.09029	. A
C8	H4	0.07235	. A
C9	C10	0.09033	. A
C9	C12	0.09934	. A
C10	C11	0.09011	. A
C10	H6	0.07251	. A
C11	H5	0.07244	. A
C12	C13	0.09016	. A
C12	C17	0.09083	. A
C13	C14	0.08983	. A
C13	H8	0.07251	. A
C14	C15	0.08924	. A
C14	H7	0.07273	. A
C15	C16	0.08966	. A
C16	C17	0.08998	. A
C16	H10	0.07288	. A
C17	H9	0.07220	. A
