data_tobacco_crystal_2_PM
_symmetry_space_group_name_H-M	'P1'
_cell_length_a	15.000000
_cell_length_b	15.000000
_cell_length_c	15.000000
_cell_angle_alpha	90.000000
_cell_angle_beta	90.000000
_cell_angle_gamma	90.000000
_symmetry_Int_Tables_number 1

loop_
_symmetry_equiv_pos_as_xyz
'x,y,z'

loop_
_atom_site_label
_atom_site_type_symbol
_atom_site_fract_x
_atom_site_fract_y
_atom_site_fract_z
C1	C	-0.006104	-0.232304	-0.003452
C2	C	-0.083704	-0.186571	0.004081
C3	C	-0.082371	-0.095704	-0.003119
C4	C	-0.004838	-0.047638	-0.014719
C5	C	0.071496	-0.096704	-0.023786
C6	C	0.069762	-0.186438	-0.018052
C7	C	-0.007371	0.057829	-0.017786
C8	C	-0.166371	-0.049838	-0.002319
Br1	Br	-0.194038	-0.246904	0.025348
H1	H	0.132496	-0.222571	-0.025986
C9	C	0.157696	-0.060038	-0.043052
N1	N	-0.231771	-0.008371	-0.003919
C10	C	0.079429	0.110762	-0.004252
C11	C	0.054229	0.199829	0.037081
N2	N	-0.041304	0.192496	0.057014
N3	N	-0.062971	0.098696	0.052681
H2	H	-0.129904	0.092229	0.039681
H3	H	-0.075904	0.230829	0.011681
H4	H	0.123162	0.077629	0.043881
H5	H	0.090429	0.210829	0.099614
H6	H	0.114696	0.119029	-0.067719
H7	H	-0.035038	0.076429	-0.083119
N4	N	0.228296	-0.033504	-0.059786

loop_
_geom_bond_atom_site_label_1
_geom_bond_atom_site_label_2
_geom_bond_distance
_ccdc_geom_bond_type
C1	C2	0.09039	. A
C1	C6	0.08985	. A
C2	C3	0.09116	. A
C3	C4	0.09196	. A
C3	C8	0.09571	. A
C4	C5	0.09119	. A
C4	C7	0.10554	. A
C5	C6	0.08993	. A
C5	C9	0.09564	. A
C6	H1	0.07283	. A
C7	C10	0.10256	. A
C7	N3	0.09863	. A
C7	H7	0.07335	. A
C8	N1	0.07745	. A
C9	N4	0.07726	. A
C10	C11	0.10137	. A
C10	H4	0.07299	. A
C10	H6	0.07308	. A
C11	N2	0.09787	. A
C11	H5	0.07309	. A
N2	N3	0.09637	. A
N2	H3	0.06871	. A
N3	H2	0.06849	. A
