data_tobacco_crystal_2_PM
_symmetry_space_group_name_H-M	'P1'
_cell_length_a	15.000000
_cell_length_b	15.000000
_cell_length_c	15.000000
_cell_angle_alpha	90.000000
_cell_angle_beta	90.000000
_cell_angle_gamma	90.000000
_symmetry_Int_Tables_number 1

loop_
_symmetry_equiv_pos_as_xyz
'x,y,z'

loop_
_atom_site_label
_atom_site_type_symbol
_atom_site_fract_x
_atom_site_fract_y
_atom_site_fract_z
O1	O	0.382038	-0.341262	0.000000
C1	C	0.300971	-0.280062	0.000000
O2	O	0.220438	-0.341262	0.000000
C2	C	0.304771	-0.180195	0.000000
H1	H	0.468105	-0.360129	0.000000
C3	C	0.178105	-0.210395	0.000000
C4	C	-0.764362	-0.275729	0.000000
C5	C	0.296438	-0.053529	0.000000
C6	C	0.328238	-0.177395	0.000000
C7	C	0.299438	-0.180795	0.000000
C8	C	0.296105	0.019605	0.000000
C9	C	0.151505	-0.060062	0.000000
C10	C	0.183371	-0.209795	0.000000
C11	C	0.338838	-0.193995	0.000000
H2	H	0.429171	-0.045795	0.000000
H3	H	0.334505	-0.193995	0.000000
H4	H	0.337105	-0.195795	0.000000
H5	H	0.360238	-0.208062	0.000000
O3	O	0.336705	-0.189195	0.000000
N1	N	0.185105	-0.209595	0.000000
C12	C	0.294438	0.109605	0.000000
C13	C	0.300038	0.177471	0.000000
H6	H	-6.765295	2.789538	0.000000
H7	H	0.211105	-0.045195	0.000000
H8	H	0.236105	-0.064729	0.000000
O4	O	0.188305	0.278338	0.000000
O5	O	0.387438	0.263405	0.000000
H9	H	0.181038	0.379005	0.000000

loop_
_geom_bond_atom_site_label_1
_geom_bond_atom_site_label_2
_geom_bond_distance
_ccdc_geom_bond_type
O1	C1	0.10157	. A
O1	H1	0.08811	. A
C1	O2	0.10115	. A
C1	C2	0.09994	. A
C1	C4	0.06548	. A
C1	C6	0.10623	. A
C1	C7	0.09928	. A
C1	C11	0.09403	. A
C1	H3	0.09237	. A
C1	H4	0.09169	. A
C1	H5	0.09326	. A
C1	O3	0.09764	. A
O2	C4	0.06727	. A
C2	C4	0.11792	. A
C2	C10	0.12496	. A
C2	C11	0.03676	. A
C2	H3	0.03278	. A
C2	H4	0.03590	. A
C2	H5	0.06207	. A
C2	O3	0.03318	. A
C2	N1	0.12323	. A
C3	C4	0.08705	. A
C3	C7	0.12489	. A
C4	C7	0.11438	. A
C4	C10	0.08414	. A
C4	N1	0.08323	. A
C5	C8	0.07313	. A
C5	H7	0.08574	. A
C5	H8	0.06136	. A
C6	C7	0.02900	. A
C6	H5	0.04432	. A
C7	C10	0.11963	. A
C7	C11	0.04155	. A
C7	H3	0.03747	. A
C7	H4	0.04054	. A
C7	H5	0.06663	. A
C7	O3	0.03820	. A
C7	N1	0.11790	. A
C8	C12	0.09002	. A
C8	H7	0.10688	. A
C8	H8	0.10350	. A
C9	H7	0.06143	. A
C9	H8	0.08473	. A
H3	H5	0.02933	. A
H5	O3	0.03016	. A
C12	C13	0.06810	. A
C13	O5	0.12257	. A
H7	H8	0.03173	. A
O4	H9	0.10093	. A
