data_tobacco_crystal_2_PM
_symmetry_space_group_name_H-M	'P1'
_cell_length_a	15.000000
_cell_length_b	15.000000
_cell_length_c	15.000000
_cell_angle_alpha	90.000000
_cell_angle_beta	90.000000
_cell_angle_gamma	90.000000
_symmetry_Int_Tables_number 1

loop_
_symmetry_equiv_pos_as_xyz
'x,y,z'

loop_
_atom_site_label
_atom_site_type_symbol
_atom_site_fract_x
_atom_site_fract_y
_atom_site_fract_z
X1	C	0.057524	-0.067167	0.021933
C1	C	-0.023010	-0.030900	0.000933
C2	C	-0.028476	0.058833	-0.012933
C3	C	0.042590	0.112300	0.003400
C4	C	0.121590	0.075900	0.025800
C5	C	0.128657	-0.013500	0.033000
O1	O	-0.106943	0.095167	-0.045467
C6	C	-0.107143	-0.086967	-0.005133
F1	F	0.209057	-0.049433	0.052933
Cl1	Cl	0.217457	0.138300	0.046133
H1	H	-0.121476	0.071500	-0.104133
H2	H	-0.167410	-0.047300	-0.016467
H3	H	-0.103210	-0.136233	-0.058733
H4	H	-0.119210	-0.120500	0.058733

loop_
_geom_bond_atom_site_label_1
_geom_bond_atom_site_label_2
_geom_bond_distance
_ccdc_geom_bond_type
X1	C1	0.09078	. A
X1	C5	0.08979	. A
C1	C2	0.09096	. A
C1	C6	0.10129	. A
C2	C3	0.09042	. A
C2	O1	0.09239	. A
C3	C4	0.08982	. A
C4	C5	0.08997	. A
C4	Cl1	0.11618	. A
C5	F1	0.09029	. A
O1	H1	0.06491	. A
C6	H2	0.07303	. A
C6	H3	0.07291	. A
C6	H4	0.07314	. A
