data_tobacco_crystal_2_PM
_symmetry_space_group_name_H-M	'P1'
_cell_length_a	15.000000
_cell_length_b	15.000000
_cell_length_c	15.000000
_cell_angle_alpha	90.000000
_cell_angle_beta	90.000000
_cell_angle_gamma	90.000000
_symmetry_Int_Tables_number 1

loop_
_symmetry_equiv_pos_as_xyz
'x,y,z'

loop_
_atom_site_label
_atom_site_type_symbol
_atom_site_fract_x
_atom_site_fract_y
_atom_site_fract_z
X1	C	0.013859	-0.276909	0.004912
C1	C	-0.057141	-0.221309	-0.005821
C2	C	-0.044475	-0.132443	-0.013221
C3	C	0.037459	-0.095109	-0.010621
C4	C	0.107459	-0.150243	0.002312
C5	C	0.096192	-0.238976	0.010379
N1	N	0.050059	-0.005243	-0.026621
F1	F	-0.116608	-0.079176	-0.025821
N2	N	-0.146475	-0.252909	-0.010421
H1	H	0.156325	-0.277976	0.020779
H2	H	0.174325	-0.122376	0.005045
N3	N	0.013392	0.046624	0.027379
C6	C	-0.004741	0.135557	-0.010421
C7	C	0.077259	0.195557	-0.011421
C8	C	0.048192	0.281891	0.033379
N4	N	-0.049741	0.276291	0.041779
N5	N	-0.070675	0.183291	0.043312
H3	H	-0.133808	0.168157	0.022712
H4	H	-0.078275	0.310824	-0.010021
H5	H	0.133059	0.165824	0.025245
H6	H	0.077192	0.286757	0.100312
H7	H	0.099325	0.206291	-0.080355
H8	H	-0.030741	0.128691	-0.078621
H9	H	-0.194275	-0.213243	-0.036888
H10	H	-0.157141	-0.319843	-0.017288

loop_
_geom_bond_atom_site_label_1
_geom_bond_atom_site_label_2
_geom_bond_distance
_ccdc_geom_bond_type
X1	C1	0.09082	. A
X1	C5	0.09082	. A
C1	C2	0.09007	. A
C1	N2	0.09487	. A
C2	C3	0.09008	. A
C2	F1	0.09055	. A
C3	C4	0.09004	. A
C3	N1	0.09215	. A
C4	C5	0.08981	. A
C4	H2	0.07249	. A
C5	H1	0.07242	. A
N1	N3	0.08337	. A
N2	H9	0.06752	. A
N2	H10	0.06812	. A
N3	C6	0.09832	. A
C6	C7	0.10161	. A
C6	N5	0.09753	. A
C6	H8	0.07331	. A
C7	C8	0.10152	. A
C7	H5	0.07309	. A
C7	H7	0.07317	. A
C8	N4	0.09845	. A
C8	H6	0.07311	. A
N4	N5	0.09534	. A
N4	H4	0.06848	. A
N5	H3	0.06811	. A
