data_tobacco_crystal_2_PM
_symmetry_space_group_name_H-M	'P1'
_cell_length_a	15.000000
_cell_length_b	15.000000
_cell_length_c	15.000000
_cell_angle_alpha	90.000000
_cell_angle_beta	90.000000
_cell_angle_gamma	90.000000
_symmetry_Int_Tables_number 1

loop_
_symmetry_equiv_pos_as_xyz
'x,y,z'

loop_
_atom_site_label
_atom_site_type_symbol
_atom_site_fract_x
_atom_site_fract_y
_atom_site_fract_z
X1	C	0.021032	-0.304294	0.012620
C1	C	-0.052635	-0.251427	0.017420
C2	C	-0.043835	-0.161894	0.017153
C3	C	0.037099	-0.121494	0.013486
C4	C	0.110032	-0.174494	0.009553
C5	C	0.101632	-0.264027	0.008153
C6	C	0.045699	-0.024760	0.002153
H1	H	-0.104168	-0.121627	0.018953
O1	O	-0.137101	-0.287627	0.021553
H2	H	0.163099	-0.301027	0.001420
O2	O	0.196432	-0.141294	0.005953
C7	C	-0.008501	0.041040	0.029686
C8	C	0.000632	0.133373	-0.008780
H3	H	-0.066435	0.027040	0.070620
H4	H	0.101832	-0.005227	-0.039780
H5	H	-0.179968	-0.256627	-0.015580
H6	H	0.200299	-0.081227	0.030353
O3	O	0.056232	0.193573	0.041153
C9	C	-0.061901	0.279773	-0.008980
C10	C	-0.087635	0.182573	-0.018847
H7	H	-0.118368	0.168573	-0.083514
H8	H	-0.083835	0.320573	-0.065380
H9	H	-0.092568	0.306973	0.051553
H10	H	-0.135901	0.164706	0.032953
H11	H	0.068165	0.273506	-0.068047
C11	C	0.039365	0.278040	-0.000780
H12	H	0.031299	0.127306	-0.075047

loop_
_geom_bond_atom_site_label_1
_geom_bond_atom_site_label_2
_geom_bond_distance
_ccdc_geom_bond_type
X1	C1	0.09080	. A
X1	C5	0.09021	. A
C1	C2	0.08997	. A
C1	O1	0.09199	. A
C2	C3	0.09053	. A
C2	H1	0.07256	. A
C3	C4	0.09024	. A
C3	C6	0.09777	. A
C4	C5	0.08994	. A
C4	O2	0.09263	. A
C5	H2	0.07206	. A
C6	C7	0.08958	. A
C6	H4	0.07274	. A
O1	H5	0.06463	. A
O2	H6	0.06495	. A
C7	C8	0.10044	. A
C7	H3	0.07230	. A
C8	O3	0.09596	. A
C8	C10	0.10155	. A
C8	H12	0.07327	. A
O3	C11	0.09580	. A
C9	C10	0.10103	. A
C9	H8	0.07298	. A
C9	H9	0.07311	. A
C9	C11	0.10161	. A
C10	H7	0.07295	. A
C10	H10	0.07302	. A
H11	C11	0.07331	. A
