data_tobacco_crystal_2_PM
_symmetry_space_group_name_H-M	'P1'
_cell_length_a	15.000000
_cell_length_b	15.000000
_cell_length_c	15.000000
_cell_angle_alpha	90.000000
_cell_angle_beta	90.000000
_cell_angle_gamma	90.000000
_symmetry_Int_Tables_number 1

loop_
_symmetry_equiv_pos_as_xyz
'x,y,z'

loop_
_atom_site_label
_atom_site_type_symbol
_atom_site_fract_x
_atom_site_fract_y
_atom_site_fract_z
X1	C	-0.000759	-0.325617	0.008824
C1	C	-0.082226	-0.287751	0.003890
C2	C	-0.093359	-0.198417	-0.001310
C3	C	-0.020092	-0.144217	-0.002443
C4	C	0.061308	-0.182684	0.006090
C5	C	0.071241	-0.271751	0.011890
C6	C	-0.028292	-0.044084	-0.017576
C7	C	-0.188026	-0.163817	-0.008776
H1	H	-0.141159	-0.330284	0.002690
H2	H	0.138641	-0.296951	0.017557
H3	H	0.121574	-0.142351	0.006357
C8	C	0.047974	0.019116	0.004424
N1	N	-0.004359	0.099183	0.015624
N2	N	-0.088092	0.079183	0.044757
N3	N	-0.101426	-0.002617	0.034357
C9	C	0.027241	0.189316	0.029757
H4	H	0.095908	0.025116	-0.049976
H5	H	0.081174	0.004649	0.067757
H6	H	-0.044626	-0.035551	-0.088710
C10	C	0.119974	0.213316	-0.002043
N4	N	0.102908	0.293383	-0.053710
N5	N	0.013774	0.297049	-0.075843
N6	N	-0.029692	0.247916	-0.024376
C11	C	0.126641	0.378516	-0.014843
H7	H	0.166574	0.223449	0.053290
H8	H	0.148774	0.163116	-0.046310
H9	H	0.020174	0.204516	0.100957
C12	C	0.117974	0.454116	0.008957
H10	H	-0.237159	-0.217751	-0.011776
H11	H	-0.206026	-0.124151	0.049824
H12	H	-0.196559	-0.123951	-0.069310

loop_
_geom_bond_atom_site_label_1
_geom_bond_atom_site_label_2
_geom_bond_distance
_ccdc_geom_bond_type
X1	C1	0.08997	. A
X1	C5	0.08997	. A
C1	C2	0.09017	. A
C1	H1	0.07269	. A
C2	C3	0.09114	. A
C2	C7	0.10107	. A
C3	C4	0.09043	. A
C3	C6	0.10160	. A
C4	C5	0.08981	. A
C4	H3	0.07252	. A
C5	H2	0.07218	. A
C6	C8	0.10146	. A
C6	N3	0.09882	. A
C6	H6	0.07348	. A
C7	H10	0.07302	. A
C7	H11	0.07302	. A
C7	H12	0.07298	. A
C8	N1	0.09631	. A
C8	H4	0.07275	. A
C8	H5	0.07296	. A
N1	N2	0.09088	. A
N1	C9	0.09655	. A
N2	N3	0.08353	. A
C9	C10	0.10093	. A
C9	N6	0.09801	. A
C9	H9	0.07315	. A
C10	N4	0.09681	. A
C10	H7	0.07305	. A
C10	H8	0.07286	. A
N4	N5	0.09191	. A
N4	C11	0.09655	. A
N5	N6	0.08338	. A
C11	C12	0.07973	. A
