data_tobacco_crystal_2_PM
_symmetry_space_group_name_H-M	'P1'
_cell_length_a	15.000000
_cell_length_b	15.000000
_cell_length_c	15.000000
_cell_angle_alpha	90.000000
_cell_angle_beta	90.000000
_cell_angle_gamma	90.000000
_symmetry_Int_Tables_number 1

loop_
_symmetry_equiv_pos_as_xyz
'x,y,z'

loop_
_atom_site_label
_atom_site_type_symbol
_atom_site_fract_x
_atom_site_fract_y
_atom_site_fract_z
X1	C	-0.031156	-0.509887	-0.004740
C1	C	-0.107422	-0.462087	-0.002940
C2	C	-0.105689	-0.373154	0.003260
C3	C	-0.028822	-0.325354	0.007994
C4	C	0.047644	-0.373887	0.003127
C5	C	0.046578	-0.464287	-0.002740
C6	C	-0.032889	-0.223487	0.025194
H1	H	-0.170556	-0.340287	0.006860
H2	H	-0.172156	-0.495687	-0.004406
H3	H	0.110378	-0.498021	-0.003606
H4	H	0.111844	-0.340287	0.006727
C7	C	0.036378	-0.150821	-0.001873
C8	C	-0.013956	-0.065421	0.029327
N1	N	-0.106422	-0.086287	-0.000606
N2	N	-0.114689	-0.181954	-0.010540
C9	C	0.008778	0.034979	0.013594
H5	H	-0.168622	-0.204221	0.024727
H6	H	-0.115889	-0.056954	-0.061606
H7	H	0.099711	-0.159621	0.033260
H8	H	-0.014556	-0.069954	0.102660
H9	H	0.048778	-0.150687	-0.073940
H10	H	-0.037222	-0.220221	0.098460
C10	C	-0.058889	0.094979	0.016794
C11	C	-0.046889	0.183046	0.005794
C12	C	0.034244	0.220179	-0.009206
C13	C	0.103178	0.160713	-0.010806
C14	C	0.090511	0.071113	-0.000273
C15	C	0.038111	0.322913	-0.027873
H11	H	-0.106822	0.223646	0.008527
H12	H	-0.126956	0.072913	0.029194
H13	H	0.148044	0.026913	-0.002340
Cl1	Cl	0.212378	0.195179	-0.028940
C16	C	0.113844	0.385379	0.001127
C17	C	0.077111	0.476846	-0.025140
N3	N	-0.020156	0.469179	-0.011140
N4	N	-0.038222	0.375646	0.008394
H14	H	-0.095622	0.357113	-0.023140
H15	H	-0.038889	0.510446	0.040260
H16	H	0.176178	0.373779	-0.034806
H17	H	0.088111	0.488646	-0.096473
H18	H	0.127178	0.381513	0.072927
H19	H	0.033511	0.327446	-0.101073

loop_
_geom_bond_atom_site_label_1
_geom_bond_atom_site_label_2
_geom_bond_distance
_ccdc_geom_bond_type
X1	C1	0.09003	. A
X1	C5	0.09014	. A
X1	C17	0.11097	. A
X1	N4	0.11543	. A
X1	H15	0.04998	. A
C1	C2	0.08917	. A
C1	H2	0.07295	. A
C1	N3	0.11139	. A
C1	H15	0.08554	. A
C2	C3	0.09064	. A
C2	H1	0.07281	. A
C3	C4	0.09070	. A
C3	C6	0.10339	. A
C4	C5	0.09060	. A
C4	H4	0.07255	. A
C5	H3	0.07217	. A
C5	C17	0.07000	. A
C5	N3	0.09461	. A
C5	H15	0.09895	. A
C5	H17	0.11281	. A
C6	C7	0.10398	. A
C6	N2	0.09845	. A
C6	H10	0.07347	. A
H3	C17	0.04693	. A
C7	C8	0.10392	. A
C7	H7	0.07296	. A
C7	H9	0.07313	. A
C8	N1	0.09941	. A
C8	C9	0.10414	. A
C8	H8	0.07348	. A
N1	N2	0.09654	. A
N1	H6	0.06835	. A
N2	H5	0.06818	. A
C9	C10	0.09049	. A
C9	C14	0.09043	. A
C10	C11	0.08956	. A
C10	H12	0.07262	. A
C11	C12	0.09048	. A
C11	H11	0.07244	. A
C12	C13	0.09105	. A
C12	C15	0.10449	. A
C13	C14	0.09110	. A
C13	Cl1	0.11594	. A
C14	H13	0.07258	. A
C15	C16	0.10237	. A
C15	N4	0.09961	. A
C15	H19	0.07348	. A
C16	C17	0.10201	. A
C16	H16	0.07288	. A
C16	H18	0.07313	. A
C17	N3	0.09857	. A
C17	H17	0.07313	. A
N3	N4	0.09724	. A
N3	H15	0.06853	. A
N4	H14	0.06806	. A
