data_tobacco_crystal_2_PM
_symmetry_space_group_name_H-M	'P1'
_cell_length_a	15.000000
_cell_length_b	15.000000
_cell_length_c	15.000000
_cell_angle_alpha	90.000000
_cell_angle_beta	90.000000
_cell_angle_gamma	90.000000
_symmetry_Int_Tables_number 1

loop_
_symmetry_equiv_pos_as_xyz
'x,y,z'

loop_
_atom_site_label
_atom_site_type_symbol
_atom_site_fract_x
_atom_site_fract_y
_atom_site_fract_z
X1	C	-0.060911	-0.166378	0.007915
C1	C	-0.139044	-0.120644	0.010181
C2	C	-0.136844	-0.030644	0.015781
C3	C	-0.059978	0.016622	0.016781
C4	C	0.018289	-0.028444	0.009715
C5	C	0.015622	-0.118644	0.006848
N1	N	-0.059644	0.107622	0.028448
H1	H	-0.199311	0.006089	0.020381
Br1	Br	-0.254311	-0.171644	0.006115
F1	F	0.095022	-0.161644	0.003981
C6	C	0.110689	0.014022	0.002581
C7	C	0.119356	0.111022	-0.026885
H2	H	0.107489	0.156289	0.029048
H3	H	0.187089	0.123889	-0.050752
H4	H	0.073822	0.127356	-0.081552
H5	H	0.148422	-0.024178	-0.047285
H6	H	0.145756	0.005622	0.066248
N2	N	-0.111511	0.153689	-0.017552

loop_
_geom_bond_atom_site_label_1
_geom_bond_atom_site_label_2
_geom_bond_distance
_ccdc_geom_bond_type
X1	C1	0.09056	. A
X1	C5	0.09021	. A
C1	C2	0.09020	. A
C1	Br1	0.12611	. A
C2	C3	0.09024	. A
C2	H1	0.07261	. A
C3	C4	0.09059	. A
C3	N1	0.09175	. A
C4	C5	0.09028	. A
C4	C6	0.10194	. A
C5	F1	0.09034	. A
N1	N2	0.08324	. A
C6	C7	0.10175	. A
C6	H5	0.07328	. A
C6	H6	0.07317	. A
C7	H2	0.07293	. A
C7	H3	0.07296	. A
C7	H4	0.07300	. A
