data_tobacco_crystal_2_PM
_symmetry_space_group_name_H-M	'P1'
_cell_length_a	15.000000
_cell_length_b	15.000000
_cell_length_c	15.000000
_cell_angle_alpha	90.000000
_cell_angle_beta	90.000000
_cell_angle_gamma	90.000000
_symmetry_Int_Tables_number 1

loop_
_symmetry_equiv_pos_as_xyz
'x,y,z'

loop_
_atom_site_label
_atom_site_type_symbol
_atom_site_fract_x
_atom_site_fract_y
_atom_site_fract_z
X1	C	-0.009841	-0.250270	0.001420
C1	C	-0.086041	-0.210603	-0.024980
C2	C	-0.089174	-0.121536	-0.033180
C3	C	-0.017374	-0.069736	-0.015380
C4	C	0.058093	-0.110803	0.012287
C5	C	0.062159	-0.200136	0.021820
C6	C	-0.024707	0.029864	-0.029246
F1	F	-0.165974	-0.084003	-0.061580
H1	H	-0.145374	-0.249203	-0.040980
O1	O	0.141626	-0.236603	0.051287
H2	H	0.118026	-0.073003	0.027687
C7	C	0.051626	0.090997	-0.003046
N1	N	0.000493	0.170930	0.013287
N2	N	-0.084774	0.149930	0.038954
N3	N	-0.098041	0.068597	0.023954
C8	C	0.029559	0.257730	0.005887
H3	H	0.101093	0.097797	-0.056313
H4	H	0.084893	0.070797	0.058820
H5	H	-0.040307	0.041397	-0.099980
H6	H	0.132426	-0.286936	0.091687
C9	C	-0.024107	0.329130	0.007287
H7	H	-0.095641	0.321130	0.012620
H8	H	0.101359	0.264530	-0.002313

loop_
_geom_bond_atom_site_label_1
_geom_bond_atom_site_label_2
_geom_bond_distance
_ccdc_geom_bond_type
X1	C1	0.08987	. A
X1	C5	0.09008	. A
C1	C2	0.08950	. A
C1	H1	0.07257	. A
C2	C3	0.09031	. A
C2	F1	0.09008	. A
C3	C4	0.09026	. A
C3	C6	0.10083	. A
C4	C5	0.08993	. A
C4	H2	0.07251	. A
C5	O1	0.09227	. A
C6	C7	0.10124	. A
C6	N3	0.09853	. A
C6	H5	0.07335	. A
O1	H6	0.06519	. A
C7	N1	0.09628	. A
C7	H3	0.07301	. A
C7	H4	0.07309	. A
N1	N2	0.09149	. A
N1	C8	0.09184	. A
N2	N3	0.08376	. A
C8	C9	0.08933	. A
C8	H8	0.07259	. A
C9	H7	0.07218	. A
