data_tobacco_crystal_2_PM
_symmetry_space_group_name_H-M	'P1'
_cell_length_a	15.000000
_cell_length_b	15.000000
_cell_length_c	15.000000
_cell_angle_alpha	90.000000
_cell_angle_beta	90.000000
_cell_angle_gamma	90.000000
_symmetry_Int_Tables_number 1

loop_
_symmetry_equiv_pos_as_xyz
'x,y,z'

loop_
_atom_site_label
_atom_site_type_symbol
_atom_site_fract_x
_atom_site_fract_y
_atom_site_fract_z
X1	C	0.032262	-0.302774	-0.008098
C1	C	-0.038338	-0.261507	0.027902
C2	C	-0.040138	-0.172307	0.041969
C3	C	0.027529	-0.117240	0.013169
C4	C	0.099995	-0.163774	-0.018631
C5	C	0.103529	-0.253040	-0.028764
C6	C	0.032462	-0.013240	0.010969
Cl1	Cl	-0.134271	-0.145507	0.103969
H1	H	-0.095605	-0.302040	0.047102
H2	H	0.163729	-0.282574	-0.056231
H3	H	0.161195	-0.131374	-0.038964
C7	C	-0.034338	0.045960	0.032436
C8	C	-0.022005	0.134826	0.028302
C9	C	0.052195	0.173226	-0.003764
C10	C	0.118329	0.117493	-0.027364
C11	C	0.108129	0.028360	-0.020031
C12	C	0.061195	0.270293	-0.007831
H4	H	-0.076805	0.176360	0.051569
C13	C	-0.184005	0.027760	-0.006698
H5	H	0.166329	-0.007774	-0.042431
H6	H	0.180729	0.143760	-0.053498
H7	H	-0.184138	0.092493	-0.040231
H8	H	-0.249071	0.018693	0.025036
H9	H	-0.174471	-0.025774	-0.055364
O1	O	-0.118005	0.022626	0.062036
C14	C	-0.008338	0.326626	-0.013698
H10	H	-0.076671	0.303293	-0.018164
H11	H	0.128595	0.297160	-0.004698

loop_
_geom_bond_atom_site_label_1
_geom_bond_atom_site_label_2
_geom_bond_distance
_ccdc_geom_bond_type
X1	C1	0.08935	. A
X1	C5	0.08933	. A
C1	C2	0.09032	. A
C1	H1	0.07274	. A
C2	C3	0.09187	. A
C2	Cl1	0.11586	. A
C3	C4	0.09180	. A
C3	C6	0.10414	. A
C4	C5	0.08991	. A
C4	H3	0.07217	. A
C5	H2	0.07246	. A
C6	C7	0.09180	. A
C6	C11	0.09174	. A
C7	C8	0.08981	. A
C7	O1	0.09176	. A
C8	C9	0.08949	. A
C8	H4	0.07259	. A
C9	C10	0.08965	. A
C9	C12	0.09757	. A
C10	C11	0.09001	. A
C10	H6	0.07257	. A
C11	H5	0.07207	. A
C12	C14	0.08968	. A
C12	H11	0.07263	. A
C13	H7	0.07290	. A
C13	H8	0.07296	. A
C13	H9	0.07297	. A
C13	O1	0.09543	. A
C14	H10	0.07235	. A
