data_tobacco_crystal_2_PM
_symmetry_space_group_name_H-M	'P1'
_cell_length_a	15.000000
_cell_length_b	15.000000
_cell_length_c	15.000000
_cell_angle_alpha	90.000000
_cell_angle_beta	90.000000
_cell_angle_gamma	90.000000
_symmetry_Int_Tables_number 1

loop_
_symmetry_equiv_pos_as_xyz
'x,y,z'

loop_
_atom_site_label
_atom_site_type_symbol
_atom_site_fract_x
_atom_site_fract_y
_atom_site_fract_z
C1	C	-0.072916	-0.301340	0.004389
C2	C	-0.143116	-0.245140	-0.002077
C3	C	-0.132716	-0.156674	-0.010544
C4	C	-0.051982	-0.116207	-0.012611
C5	C	0.018084	-0.173807	-0.006477
C6	C	0.011284	-0.265607	0.001589
C7	C	-0.051116	-0.010674	-0.024344
F1	F	-0.208116	-0.108274	-0.017944
H1	H	-0.211316	-0.268874	0.000456
C8	C	0.103618	-0.311740	0.005123
H2	H	0.084351	-0.144207	-0.008211
C9	C	0.030218	0.057793	-0.019811
C10	C	-0.005516	0.143193	0.029523
N1	N	-0.103316	0.127860	0.026856
N2	N	-0.113182	0.032793	0.038923
C11	C	0.013151	0.248460	0.020656
H3	H	-0.177116	0.011460	0.027256
H4	H	-0.126316	0.148393	-0.034344
H5	H	0.053951	0.072926	-0.087077
H6	H	0.014418	0.130793	0.099123
H7	H	0.084818	0.028526	0.019056
H8	H	-0.078782	-0.001340	-0.091744
C12	C	0.124351	-0.410007	-0.011944
H9	H	0.108151	-0.451674	0.045723
H10	H	0.092684	-0.435474	-0.072544
H11	H	0.196418	-0.418607	-0.021744
H12	H	0.144818	-0.277740	-0.045277
H13	H	0.133351	-0.295607	0.070056
C13	C	0.096484	0.301593	-0.007477
C14	C	0.066618	0.397993	0.016589
N3	N	-0.031516	0.396926	0.002056
N4	N	-0.055516	0.305060	-0.023811
H14	H	-0.116316	0.289326	0.003323
H15	H	-0.048782	0.444460	-0.044211
H16	H	0.156151	0.283593	0.030389
H17	H	0.077618	0.408660	0.088323
H18	H	0.111284	0.296860	-0.079011
H19	H	0.005818	0.266326	0.091789

loop_
_geom_bond_atom_site_label_1
_geom_bond_atom_site_label_2
_geom_bond_distance
_ccdc_geom_bond_type
C1	C2	0.09016	. A
C1	C6	0.09151	. A
C2	C3	0.08948	. A
C2	H1	0.07226	. A
C3	C4	0.09033	. A
C3	F1	0.08990	. A
C4	C5	0.09091	. A
C4	C7	0.10619	. A
C5	C6	0.09240	. A
C5	H2	0.07260	. A
C6	C8	0.10328	. A
C7	C9	0.10641	. A
C7	N2	0.09871	. A
C7	H8	0.07345	. A
C8	C12	0.10187	. A
C8	H12	0.07344	. A
C8	H13	0.07322	. A
C9	C10	0.10490	. A
C9	H5	0.07292	. A
C9	H7	0.07313	. A
C10	N1	0.09903	. A
C10	C11	0.10728	. A
C10	H6	0.07345	. A
N1	N2	0.09634	. A
N1	H4	0.06853	. A
N2	H3	0.06840	. A
C11	C13	0.10276	. A
C11	N4	0.09948	. A
C11	H19	0.07371	. A
C12	H9	0.07297	. A
C12	H10	0.07296	. A
C12	H11	0.07324	. A
C13	C14	0.10375	. A
C13	H16	0.07292	. A
C13	H18	0.07320	. A
C14	N3	0.09921	. A
C14	H17	0.07335	. A
N3	N4	0.09841	. A
N3	H15	0.06854	. A
N4	H14	0.06841	. A
