data_tobacco_crystal_2_PM
_symmetry_space_group_name_H-M	'P1'
_cell_length_a	15.000000
_cell_length_b	15.000000
_cell_length_c	15.000000
_cell_angle_alpha	90.000000
_cell_angle_beta	90.000000
_cell_angle_gamma	90.000000
_symmetry_Int_Tables_number 1

loop_
_symmetry_equiv_pos_as_xyz
'x,y,z'

loop_
_atom_site_label
_atom_site_type_symbol
_atom_site_fract_x
_atom_site_fract_y
_atom_site_fract_z
C1	C	-0.147511	-0.255267	0.021072
X1	C	-0.193244	-0.460667	0.006005
C2	C	-0.197777	-0.181267	0.027339
C3	C	-0.165111	-0.097867	0.013072
C4	C	-0.075044	-0.088133	-0.003395
C5	C	-0.026177	-0.164533	-0.007861
C6	C	-0.060311	-0.246733	0.002005
C7	C	-0.023377	0.000400	-0.021928
C8	C	-0.233711	-0.021867	0.010205
H1	H	-0.268044	-0.191133	0.042072
O1	O	-0.003844	-0.318867	-0.009395
H2	H	0.044489	-0.162400	-0.022861
C9	C	-0.332111	-0.049133	-0.004595
H3	H	-0.360311	-0.081000	0.054939
H4	H	-0.339311	-0.095600	-0.060661
H5	H	-0.373711	0.009000	-0.018995
H6	H	-0.217044	0.022600	-0.045328
H7	H	-0.230377	0.016600	0.072139
C10	C	0.079289	0.000867	-0.008928
C11	C	0.102823	0.098467	-0.025461
N1	N	0.028689	0.145200	0.020072
N2	N	-0.045777	0.079800	0.031472
C12	C	0.197556	0.134600	-0.007595
H8	H	-0.103577	0.107067	0.007805
H9	H	0.050623	0.164733	0.081805
H10	H	0.097556	-0.019933	0.059005
H11	H	0.093289	0.109800	-0.097395
H12	H	0.113623	-0.042200	-0.056795
H13	H	-0.036844	0.016067	-0.092328
C13	C	0.211156	0.223933	-0.004128
C14	C	0.293356	0.259533	0.005272
C15	C	0.365289	0.206000	0.011539
C16	C	0.353223	0.116800	0.010539
C17	C	0.270556	0.081800	0.001272
H14	H	0.301023	0.331667	0.006139
H15	H	0.155556	0.269733	-0.011195
H16	H	0.264689	0.009600	-0.000795
H17	H	0.410423	0.072333	0.015872

loop_
_geom_bond_atom_site_label_1
_geom_bond_atom_site_label_2
_geom_bond_distance
_ccdc_geom_bond_type
C1	C2	0.08968	. A
C1	C6	0.08967	. A
C2	C3	0.09070	. A
C2	H1	0.07247	. A
C3	C4	0.09208	. A
C3	C8	0.10242	. A
C4	C5	0.09080	. A
C4	C7	0.10417	. A
C5	C6	0.08955	. A
C5	H2	0.07227	. A
C6	O1	0.09231	. A
C7	C10	0.10349	. A
C7	N2	0.09827	. A
C7	H13	0.07337	. A
C8	C9	0.10317	. A
C8	H6	0.07307	. A
C8	H7	0.07298	. A
C9	H3	0.07318	. A
C9	H4	0.07317	. A
C9	H5	0.07292	. A
C10	C11	0.10175	. A
C10	H10	0.07336	. A
C10	H12	0.07297	. A
C11	N1	0.09876	. A
C11	C12	0.10295	. A
C11	H11	0.07344	. A
N1	N2	0.09976	. A
N1	H9	0.06836	. A
N2	H8	0.06815	. A
C12	C13	0.09043	. A
C12	C17	0.09053	. A
C13	C14	0.09007	. A
C13	H15	0.07238	. A
C14	C15	0.08989	. A
C14	H14	0.07254	. A
C15	C16	0.09002	. A
C16	C17	0.09025	. A
C16	H17	0.07265	. A
C17	H16	0.07247	. A
