data_tobacco_crystal_2_PM
_symmetry_space_group_name_H-M	'P1'
_cell_length_a	15.000000
_cell_length_b	15.000000
_cell_length_c	15.000000
_cell_angle_alpha	90.000000
_cell_angle_beta	90.000000
_cell_angle_gamma	90.000000
_symmetry_Int_Tables_number 1

loop_
_symmetry_equiv_pos_as_xyz
'x,y,z'

loop_
_atom_site_label
_atom_site_type_symbol
_atom_site_fract_x
_atom_site_fract_y
_atom_site_fract_z
X1	C	-0.039995	-0.216867	-0.021990
C1	C	-0.111795	-0.163800	-0.006524
C2	C	-0.099662	-0.075133	0.001543
C3	C	-0.018329	-0.036667	-0.002990
C4	C	0.051538	-0.090400	-0.021457
C5	C	0.042738	-0.179533	-0.032190
C6	C	-0.007262	0.061733	0.020810
H1	H	-0.158795	-0.035533	0.015743
O1	O	-0.196729	-0.197400	0.003410
C7	C	0.200005	-0.215800	-0.017457
H2	H	0.116338	-0.058600	-0.027524
H3	H	-0.241395	-0.153267	0.018210
O2	O	0.046605	0.114867	-0.038257
C8	C	-0.062329	0.212200	0.020010
C9	C	-0.092595	0.116933	0.031076
N1	N	0.073805	0.282400	-0.050057
H4	H	-0.140529	0.102600	-0.022257
H5	H	-0.073662	0.253000	0.079476
H6	H	-0.101329	0.241733	-0.034257
H7	H	-0.125662	0.105333	0.095076
H8	H	0.073871	0.203400	0.061276
C10	C	0.036938	0.204333	-0.002057
H9	H	0.027138	0.061933	0.085876
H10	H	0.200671	-0.227067	0.054676
H11	H	0.246538	-0.263400	-0.047790
H12	H	0.223605	-0.149000	-0.033990
O3	O	0.113938	-0.235133	-0.052457
N2	N	0.016338	0.337133	-0.075924

loop_
_geom_bond_atom_site_label_1
_geom_bond_atom_site_label_2
_geom_bond_distance
_ccdc_geom_bond_type
X1	C1	0.09061	. A
X1	C5	0.09134	. A
C1	C2	0.08986	. A
C1	O1	0.09188	. A
C2	C3	0.09009	. A
C2	H1	0.07257	. A
C3	C4	0.09005	. A
C3	C6	0.10184	. A
C4	C5	0.09021	. A
C4	H2	0.07244	. A
C5	O3	0.09258	. A
C6	O2	0.09599	. A
C6	C9	0.10215	. A
C6	H9	0.07360	. A
O1	H3	0.06451	. A
C7	H10	0.07301	. A
C7	H11	0.07315	. A
C7	H12	0.07275	. A
C7	O3	0.09490	. A
O2	C10	0.09700	. A
C8	C9	0.10057	. A
C8	H5	0.07300	. A
C8	H6	0.07306	. A
C8	C10	0.10199	. A
C9	H4	0.07313	. A
C9	H7	0.07297	. A
N1	C10	0.09878	. A
N1	N2	0.08347	. A
H8	C10	0.07332	. A
