data_tobacco_crystal_2_PM
_symmetry_space_group_name_H-M	'P1'
_cell_length_a	15.000000
_cell_length_b	15.000000
_cell_length_c	15.000000
_cell_angle_alpha	90.000000
_cell_angle_beta	90.000000
_cell_angle_gamma	90.000000
_symmetry_Int_Tables_number 1

loop_
_symmetry_equiv_pos_as_xyz
'x,y,z'

loop_
_atom_site_label
_atom_site_type_symbol
_atom_site_fract_x
_atom_site_fract_y
_atom_site_fract_z
X1	C	-0.016340	-0.360904	-0.018687
C1	C	-0.096074	-0.319704	-0.014487
C2	C	-0.104007	-0.230438	-0.011621
C3	C	-0.031207	-0.177838	-0.012954
C4	C	0.048126	-0.220638	-0.018087
C5	C	0.059793	-0.310438	-0.020354
C6	C	-0.035074	-0.079438	-0.000154
H1	H	-0.171007	-0.203771	-0.006754
H2	H	-0.158274	-0.358504	-0.013021
C7	C	0.159393	-0.334304	-0.025154
H3	H	0.108593	-0.181304	-0.020021
C8	C	-0.112874	-0.035838	0.016446
C9	C	-0.113807	0.049629	0.044046
C10	C	-0.036474	0.093229	0.055179
C11	C	0.040393	0.054829	0.030779
C12	C	0.040660	-0.029838	0.002646
C13	C	-0.032674	0.182496	0.082913
H4	H	-0.177007	0.082362	0.058046
H5	H	-0.177207	-0.068171	0.010979
H6	H	0.106060	-0.055171	-0.014154
H7	H	0.102926	0.091496	0.034446
C14	C	0.200593	-0.415104	0.019446
H8	H	0.179860	-0.421504	0.089046
H9	H	0.186593	-0.475971	-0.017821
H10	H	0.273326	-0.407171	0.020446
H11	H	0.179793	-0.332504	-0.095221
H12	H	0.196326	-0.279238	0.006846
C15	C	-0.019940	0.260496	0.072246
C16	C	-0.008674	0.333962	0.011979
O1	O	0.031926	0.411362	0.048779
C17	C	-0.093074	0.462429	-0.026021
C18	C	-0.098607	0.362096	-0.025421
H13	H	-0.155140	0.339629	0.015313
H14	H	-0.132007	0.488762	0.029913
H15	H	-0.119274	0.491029	-0.087687
H16	H	-0.108007	0.333429	-0.091954
H17	H	0.041926	0.469096	-0.075087
C19	C	0.005793	0.480096	-0.012221
H18	H	0.034660	0.311362	-0.042621

loop_
_geom_bond_atom_site_label_1
_geom_bond_atom_site_label_2
_geom_bond_distance
_ccdc_geom_bond_type
X1	C1	0.08985	. A
X1	C5	0.09136	. A
C1	C2	0.08966	. A
C1	H2	0.07332	. A
C2	C3	0.08982	. A
C2	H1	0.07228	. A
C3	C4	0.09029	. A
C3	C6	0.09930	. A
C4	C5	0.09058	. A
C4	H3	0.07216	. A
C5	C7	0.10253	. A
C6	C8	0.09072	. A
C6	C12	0.09057	. A
C7	C14	0.10107	. A
C7	H11	0.07300	. A
C7	H12	0.07362	. A
C8	C9	0.08982	. A
C8	H5	0.07221	. A
C9	C10	0.08947	. A
C9	H4	0.07254	. A
C10	C11	0.08932	. A
C10	C13	0.09355	. A
C11	C12	0.08922	. A
C11	H7	0.07258	. A
C12	H6	0.07212	. A
C13	C15	0.07975	. A
C14	H8	0.07290	. A
C14	H9	0.07273	. A
C14	H10	0.07317	. A
C15	C16	0.09569	. A
C16	O1	0.09483	. A
C16	C18	0.10138	. A
C16	H18	0.07328	. A
O1	C19	0.09554	. A
C17	C18	0.10049	. A
C17	H14	0.07306	. A
C17	H15	0.07285	. A
C17	C19	0.10138	. A
C18	H13	0.07321	. A
C18	H16	0.07305	. A
H17	C19	0.07334	. A
