data_tobacco_crystal_2_PM
_symmetry_space_group_name_H-M	'P1'
_cell_length_a	15.000000
_cell_length_b	15.000000
_cell_length_c	15.000000
_cell_angle_alpha	90.000000
_cell_angle_beta	90.000000
_cell_angle_gamma	90.000000
_symmetry_Int_Tables_number 1

loop_
_symmetry_equiv_pos_as_xyz
'x,y,z'

loop_
_atom_site_label
_atom_site_type_symbol
_atom_site_fract_x
_atom_site_fract_y
_atom_site_fract_z
X1	C	0.045789	-0.304987	-0.014905
C1	C	-0.038677	-0.280387	0.001961
C2	C	-0.058944	-0.195387	0.021161
C3	C	0.004589	-0.130254	0.024628
C4	C	0.090456	-0.155787	0.007828
C5	C	0.109989	-0.242387	-0.011639
C6	C	-0.026677	-0.032920	0.043495
O1	O	-0.147677	-0.175920	0.037695
H1	H	-0.091677	-0.329920	-0.000372
H2	H	0.178789	-0.260387	-0.026572
C7	C	0.163523	-0.094654	0.009561
O2	O	0.037789	0.039013	0.029361
C8	C	-0.099811	0.089146	-0.027639
C9	C	-0.107811	-0.008654	-0.013772
C10	C	0.020056	0.202813	-0.023105
H3	H	-0.170944	-0.023920	0.019361
H4	H	-0.129277	0.121480	0.030895
H5	H	-0.134611	0.113080	-0.086905
H6	H	-0.106477	-0.042454	-0.078505
H7	H	0.025323	0.081480	-0.097705
C11	C	0.000389	0.102680	-0.032239
H8	H	-0.043477	-0.028920	0.114628
N1	N	0.226789	-0.050054	0.009428
H9	H	-0.188411	-0.218654	0.010828
C12	C	0.109656	0.241280	-0.000239
N2	N	0.078123	0.328346	0.029895
N3	N	-0.006277	0.322346	0.063961
N4	N	-0.036811	0.246413	0.045895
H10	H	0.155589	0.246813	-0.056439
H11	H	0.141589	0.208546	0.056561
H12	H	-0.000877	0.232213	-0.087105

loop_
_geom_bond_atom_site_label_1
_geom_bond_atom_site_label_2
_geom_bond_distance
_ccdc_geom_bond_type
X1	C1	0.08958	. A
X1	C5	0.08973	. A
C1	C2	0.08947	. A
C1	H1	0.07258	. A
C2	C3	0.09105	. A
C2	O1	0.09234	. A
C3	C4	0.09114	. A
C3	C6	0.10396	. A
C4	C5	0.09088	. A
C4	C7	0.09528	. A
C5	H2	0.07267	. A
C6	O2	0.09762	. A
C6	C9	0.10223	. A
C6	H8	0.07320	. A
O1	H9	0.06486	. A
C7	N1	0.07741	. A
O2	C11	0.09616	. A
C8	C9	0.09910	. A
C8	H4	0.07307	. A
C8	H5	0.07278	. A
C8	C11	0.10121	. A
C9	H3	0.07292	. A
C9	H6	0.07304	. A
C10	C11	0.10245	. A
C10	C12	0.10015	. A
C10	N4	0.09948	. A
C10	H12	0.07347	. A
H7	C11	0.07319	. A
C12	N2	0.09738	. A
C12	H10	0.07279	. A
C12	H11	0.07292	. A
N2	N3	0.09121	. A
N3	N4	0.08381	. A
