data_tobacco_crystal_2_PM
_symmetry_space_group_name_H-M	'P1'
_cell_length_a	15.000000
_cell_length_b	15.000000
_cell_length_c	15.000000
_cell_angle_alpha	90.000000
_cell_angle_beta	90.000000
_cell_angle_gamma	90.000000
_symmetry_Int_Tables_number 1

loop_
_symmetry_equiv_pos_as_xyz
'x,y,z'

loop_
_atom_site_label
_atom_site_type_symbol
_atom_site_fract_x
_atom_site_fract_y
_atom_site_fract_z
X1	C	-0.024223	-0.550786	0.011611
C1	C	-0.109489	-0.522119	0.008345
C2	C	-0.127689	-0.435719	-0.005922
C3	C	-0.062089	-0.376186	-0.017189
C4	C	0.023244	-0.405652	-0.013922
C5	C	0.042377	-0.491519	0.001878
C6	C	-0.083689	-0.279052	-0.034922
H1	H	-0.197156	-0.413519	-0.007189
H2	H	-0.165089	-0.567786	0.017145
H3	H	0.112511	-0.508652	0.006078
H4	H	0.080577	-0.362252	-0.023322
C7	C	-0.008156	-0.215452	-0.018055
N1	N	-0.043089	-0.159186	0.050211
N2	N	-0.131156	-0.175919	0.065478
N3	N	-0.154889	-0.244519	0.023811
C8	C	-0.016823	-0.068186	0.045678
H5	H	0.005577	-0.177719	-0.079055
H6	H	0.054511	-0.240386	0.008745
H7	H	-0.105023	-0.271986	-0.104455
C9	C	0.076711	-0.051319	0.012611
N4	N	0.086044	0.039148	0.042411
N5	N	0.040044	0.043748	0.124545
N6	N	-0.014289	-0.020586	0.131078
C10	C	0.058977	0.106481	-0.015589
H8	H	0.088044	-0.058386	-0.058989
H9	H	0.126311	-0.091119	0.048945
H10	H	-0.065023	-0.037452	0.000211
C11	C	-0.027356	0.132214	-0.019855
C12	C	-0.048356	0.214948	-0.044989
C13	C	0.019844	0.271748	-0.059122
C14	C	0.101844	0.240214	-0.079789
C15	C	0.121911	0.155881	-0.056322
C16	C	0.011111	0.357548	-0.007922
H11	H	-0.115889	0.237414	-0.031522
H12	H	-0.081689	0.094614	0.009278
H13	H	0.191111	0.134481	-0.057722
H14	H	0.157044	0.283948	-0.096455
C17	C	0.092177	0.416814	0.001278
C18	C	0.053177	0.499081	0.045345
N7	N	-0.045423	0.488614	0.040078
N8	N	-0.061289	0.419214	-0.026255
H15	H	-0.120556	0.387814	-0.012922
H16	H	-0.072023	0.548614	0.020678
H17	H	0.122044	0.431148	-0.063855
H18	H	0.073377	0.503814	0.115411
H19	H	0.142777	0.385214	0.043678
H20	H	-0.000889	0.332748	0.060811

loop_
_geom_bond_atom_site_label_1
_geom_bond_atom_site_label_2
_geom_bond_distance
_ccdc_geom_bond_type
X1	C1	0.09002	. A
X1	C5	0.08968	. A
X1	C16	0.10016	. A
X1	C17	0.12127	. A
X1	C18	0.09806	. A
X1	N7	0.05303	. A
X1	N8	0.06089	. A
X1	H15	0.11684	. A
X1	H16	0.11067	. A
C1	C2	0.08944	. A
C1	H2	0.07249	. A
C1	N7	0.07230	. A
C1	N8	0.08344	. A
C1	H15	0.09320	. A
C1	H16	0.08099	. A
C2	C3	0.08930	. A
C2	H1	0.07294	. A
C2	N7	0.12087	. A
C2	H16	0.06365	. A
C3	C4	0.09034	. A
C3	C6	0.10107	. A
C3	H16	0.08478	. A
C4	C5	0.08938	. A
C4	H4	0.07252	. A
C4	C18	0.11612	. A
C4	H16	0.11120	. A
C5	H3	0.07232	. A
C5	C17	0.10432	. A
C5	C18	0.04576	. A
C5	N7	0.09779	. A
C5	H16	0.12268	. A
C5	H18	0.11778	. A
C6	C7	0.10017	. A
C6	N3	0.09855	. A
C6	H7	0.07307	. A
H2	H15	0.06970	. A
H3	C17	0.07741	. A
H3	C18	0.07157	. A
C7	N1	0.09511	. A
C7	H5	0.07303	. A
C7	H6	0.07257	. A
N1	N2	0.09093	. A
N1	C8	0.09482	. A
N2	N3	0.08370	. A
C8	C9	0.10063	. A
C8	N6	0.09780	. A
C8	H10	0.07304	. A
C9	N4	0.09570	. A
C9	H8	0.07284	. A
C9	H9	0.07324	. A
N4	N5	0.09425	. A
N4	C10	0.09290	. A
N5	N6	0.08446	. A
C10	C11	0.09019	. A
C10	C15	0.08978	. A
C11	C12	0.08898	. A
C11	H12	0.07221	. A
C12	C13	0.08987	. A
C12	H11	0.07244	. A
C13	C14	0.09025	. A
C13	C16	0.10030	. A
C14	C15	0.08981	. A
C14	H14	0.07237	. A
C15	H13	0.07245	. A
C16	C17	0.10084	. A
C16	N8	0.09685	. A
C16	H20	0.07405	. A
C17	C18	0.10115	. A
C17	H17	0.07307	. A
C17	H19	0.07319	. A
C18	N7	0.09929	. A
C18	H18	0.07307	. A
N7	N8	0.09730	. A
N7	H16	0.06844	. A
N8	H15	0.06838	. A
