data_tobacco_crystal_2_PM
_symmetry_space_group_name_H-M	'P1'
_cell_length_a	15.000000
_cell_length_b	15.000000
_cell_length_c	15.000000
_cell_angle_alpha	90.000000
_cell_angle_beta	90.000000
_cell_angle_gamma	90.000000
_symmetry_Int_Tables_number 1

loop_
_symmetry_equiv_pos_as_xyz
'x,y,z'

loop_
_atom_site_label
_atom_site_type_symbol
_atom_site_fract_x
_atom_site_fract_y
_atom_site_fract_z
X1	C	0.050618	-0.273491	0.002891
C1	C	-0.021049	-0.220024	-0.008176
C2	C	-0.009582	-0.131091	-0.000442
C3	C	0.070551	-0.092824	0.016091
C4	C	0.142018	-0.148158	0.023958
C5	C	0.131018	-0.237091	0.019624
C6	C	0.079284	0.004776	0.014891
H1	H	-0.067982	-0.089224	-0.011509
C7	C	-0.178049	-0.226224	0.018291
H2	H	0.190018	-0.277958	0.029491
O1	O	0.229018	-0.118558	0.034024
C8	C	0.013618	0.064176	0.027958
C9	C	0.016484	0.155376	-0.013242
H3	H	-0.051449	0.042376	0.051891
H4	H	0.142551	0.031376	-0.008442
O2	O	0.071751	0.219642	0.030491
C10	C	-0.052849	0.298242	-0.020642
C11	C	-0.074582	0.199776	-0.019242
H5	H	-0.116316	0.184909	0.038891
H6	H	-0.085116	0.331242	0.036024
H7	H	-0.076516	0.330976	-0.081442
H8	H	-0.110982	0.178042	-0.078709
H9	H	0.077418	0.298376	-0.080576
C12	C	0.048551	0.301842	-0.013242
H10	H	0.042951	0.147309	-0.081176
H11	H	-0.160316	-0.200691	0.084358
H12	H	-0.213382	-0.175024	-0.019776
H13	H	-0.223049	-0.282891	0.027424
O3	O	-0.103049	-0.256424	-0.031176
H14	H	0.238418	-0.058758	0.011491

loop_
_geom_bond_atom_site_label_1
_geom_bond_atom_site_label_2
_geom_bond_distance
_ccdc_geom_bond_type
X1	C1	0.09010	. A
X1	C5	0.08983	. A
C1	C2	0.09000	. A
C1	O3	0.09262	. A
C2	C3	0.09033	. A
C2	H1	0.07270	. A
C3	C4	0.09073	. A
C3	C6	0.09800	. A
C4	C5	0.08972	. A
C4	O1	0.09245	. A
C5	H2	0.07245	. A
C6	C8	0.08951	. A
C6	H4	0.07249	. A
C7	H11	0.07302	. A
C7	H12	0.07293	. A
C7	H13	0.07294	. A
C7	O3	0.09478	. A
O1	H14	0.06459	. A
C8	C9	0.10012	. A
C8	H3	0.07268	. A
C9	O2	0.09538	. A
C9	C11	0.10149	. A
C9	H10	0.07335	. A
O2	C12	0.09596	. A
C10	C11	0.10085	. A
C10	H6	0.07308	. A
C10	H7	0.07299	. A
C10	C12	0.10173	. A
C11	H5	0.07309	. A
C11	H8	0.07303	. A
H9	C12	0.07334	. A
