data_tobacco_crystal_2_PM
_symmetry_space_group_name_H-M	'P1'
_cell_length_a	15.000000
_cell_length_b	15.000000
_cell_length_c	15.000000
_cell_angle_alpha	90.000000
_cell_angle_beta	90.000000
_cell_angle_gamma	90.000000
_symmetry_Int_Tables_number 1

loop_
_symmetry_equiv_pos_as_xyz
'x,y,z'

loop_
_atom_site_label
_atom_site_type_symbol
_atom_site_fract_x
_atom_site_fract_y
_atom_site_fract_z
X1	C	-0.018011	-0.405825	-0.006377
C1	C	-0.091078	-0.352825	-0.005377
C2	C	-0.083011	-0.263425	0.000290
C3	C	-0.002011	-0.224025	0.004956
C4	C	0.070389	-0.277359	0.002090
C5	C	0.063255	-0.366892	-0.003844
N1	N	0.008389	-0.134159	0.022156
H1	H	-0.143011	-0.222959	0.003490
H2	H	-0.157545	-0.381892	-0.007244
H3	H	0.124922	-0.404425	-0.004377
H4	H	0.136255	-0.247492	0.006690
N2	N	-0.019611	-0.078025	-0.033177
C6	C	-0.025878	0.010908	0.008623
C7	C	0.051789	0.073375	-0.010977
C8	C	0.014722	0.160308	0.026956
N3	N	-0.082745	0.155308	0.011956
N4	N	-0.100411	0.065908	-0.022977
C9	C	0.050189	0.246041	-0.004910
H5	H	-0.158811	0.040375	0.001023
H6	H	-0.100611	0.202575	-0.034044
H7	H	0.112722	0.052108	0.023290
H8	H	0.025389	0.158908	0.099423
H9	H	0.066322	0.077508	-0.082577
H10	H	-0.033211	0.002908	0.081290
C10	C	0.069655	0.322975	-0.016977
C11	C	0.088189	0.416241	-0.018510
C12	C	0.023055	0.477175	-0.011777
H11	H	-0.046945	0.459841	-0.008644
H12	H	0.157655	0.436841	-0.020444

loop_
_geom_bond_atom_site_label_1
_geom_bond_atom_site_label_2
_geom_bond_distance
_ccdc_geom_bond_type
X1	C1	0.09027	. A
X1	C5	0.09015	. A
X1	C12	0.12412	. A
C1	C2	0.08994	. A
C1	H2	0.07257	. A
C2	C3	0.09019	. A
C2	H1	0.07244	. A
C3	C4	0.08997	. A
C3	N1	0.09209	. A
C4	C5	0.09001	. A
C4	H4	0.07247	. A
C5	H3	0.07219	. A
N1	N2	0.08365	. A
N2	C6	0.09847	. A
C6	C7	0.10158	. A
C6	N4	0.09787	. A
C6	H10	0.07347	. A
C7	C8	0.10183	. A
C7	H7	0.07307	. A
C7	H9	0.07318	. A
C8	N3	0.09874	. A
C8	C9	0.09810	. A
C8	H8	0.07326	. A
N3	N4	0.09760	. A
N3	H6	0.06833	. A
N4	H5	0.06811	. A
C9	C10	0.08027	. A
C10	C11	0.09510	. A
C11	C12	0.08945	. A
C11	H12	0.07248	. A
C12	H11	0.07218	. A
