data_tobacco_crystal_2_PM
_symmetry_space_group_name_H-M	'P1'
_cell_length_a	15.000000
_cell_length_b	15.000000
_cell_length_c	15.000000
_cell_angle_alpha	90.000000
_cell_angle_beta	90.000000
_cell_angle_gamma	90.000000
_symmetry_Int_Tables_number 1

loop_
_symmetry_equiv_pos_as_xyz
'x,y,z'

loop_
_atom_site_label
_atom_site_type_symbol
_atom_site_fract_x
_atom_site_fract_y
_atom_site_fract_z
X1	C	-0.053310	-0.315133	-0.007548
C1	C	-0.130510	-0.269333	-0.003482
C2	C	-0.129643	-0.180333	0.002652
C3	C	-0.053043	-0.132400	0.004852
C4	C	0.025824	-0.177867	-0.000882
C5	C	0.023690	-0.268467	-0.006815
N1	N	-0.063043	-0.042533	0.019718
H1	H	-0.193376	-0.145733	0.007518
H2	H	-0.194376	-0.304200	-0.003882
H3	H	0.087224	-0.302533	-0.010615
C6	C	0.118490	-0.135333	-0.002482
C7	C	0.141690	-0.058067	0.059452
H4	H	0.084824	-0.023467	0.088252
H5	H	0.181957	-0.009267	0.022852
H6	H	0.182157	-0.081467	0.115452
H7	H	0.131557	-0.115133	-0.071682
H8	H	0.168757	-0.186800	0.011718
N2	N	-0.025110	0.013733	-0.028682
C8	C	-0.041843	0.104133	0.006918
C9	C	0.041224	0.163667	0.003252
C10	C	0.006824	0.251533	-0.034948
N3	N	-0.090176	0.244867	-0.023148
N4	N	-0.109710	0.153667	-0.043348
N5	N	0.044090	0.331267	0.008718
H9	H	-0.171176	0.134400	-0.020948
H10	H	-0.119843	0.289667	-0.065148
H11	H	0.069357	0.171667	0.070252
H12	H	0.023290	0.253600	-0.106348
H13	H	0.093357	0.135800	-0.039748
H14	H	-0.062910	0.100333	0.077185
N6	N	0.013757	0.399733	-0.029082

loop_
_geom_bond_atom_site_label_1
_geom_bond_atom_site_label_2
_geom_bond_distance
_ccdc_geom_bond_type
X1	C1	0.08986	. A
X1	C5	0.09004	. A
C1	C2	0.08922	. A
C1	H2	0.07277	. A
C2	C3	0.09039	. A
C2	H1	0.07268	. A
C3	C4	0.09121	. A
C3	N1	0.09164	. A
C4	C5	0.09082	. A
C4	C6	0.10197	. A
C5	H3	0.07219	. A
N1	N2	0.08335	. A
C6	C7	0.10171	. A
C6	H7	0.07326	. A
C6	H8	0.07333	. A
C7	H4	0.07253	. A
C7	H5	0.07309	. A
C7	H6	0.07295	. A
N2	C8	0.09859	. A
C8	C9	0.10226	. A
C8	N4	0.09791	. A
C8	H14	0.07346	. A
C9	C10	0.10180	. A
C9	H11	0.07311	. A
C9	H13	0.07310	. A
C10	N3	0.09794	. A
C10	N5	0.09825	. A
C10	H12	0.07330	. A
N3	N4	0.09543	. A
N3	H10	0.06820	. A
N4	H9	0.06820	. A
N5	N6	0.08388	. A
