data_tobacco_crystal_2_PM
_symmetry_space_group_name_H-M	'P1'
_cell_length_a	15.000000
_cell_length_b	15.000000
_cell_length_c	15.000000
_cell_angle_alpha	90.000000
_cell_angle_beta	90.000000
_cell_angle_gamma	90.000000
_symmetry_Int_Tables_number 1

loop_
_symmetry_equiv_pos_as_xyz
'x,y,z'

loop_
_atom_site_label
_atom_site_type_symbol
_atom_site_fract_x
_atom_site_fract_y
_atom_site_fract_z
X1	C	0.036843	-0.320243	0.000595
C1	C	-0.039957	-0.272776	0.002595
C2	C	-0.041157	-0.182843	0.002061
C3	C	0.036043	-0.135376	0.000261
C4	C	0.112976	-0.183709	0.000728
C5	C	0.114176	-0.273976	0.000528
C6	C	0.048443	-0.037243	-0.007939
Cl1	Cl	-0.148491	-0.138043	0.001528
H1	H	-0.103557	-0.307976	0.002395
Cl2	Cl	0.218509	-0.324243	-0.001939
H2	H	0.176776	-0.149176	-0.000539
C7	C	-0.013691	0.027091	-0.005405
C8	C	-0.005691	0.124024	-0.030939
H3	H	-0.081691	0.009691	0.010195
H4	H	0.116109	-0.015243	-0.023539
O1	O	0.066709	0.170824	0.009995
C9	C	-0.059957	0.267224	0.004061
C10	C	-0.090157	0.172624	-0.003339
H5	H	-0.144357	0.163624	-0.051272
H6	H	-0.065224	0.299957	-0.061139
H7	H	-0.100091	0.305757	0.051261
H8	H	-0.113891	0.150091	0.062128
H9	H	0.041509	0.262224	0.106995
C11	C	0.036709	0.258957	0.034195
H10	H	0.003109	0.128757	-0.103472

loop_
_geom_bond_atom_site_label_1
_geom_bond_atom_site_label_2
_geom_bond_distance
_ccdc_geom_bond_type
X1	C1	0.09031	. A
X1	C5	0.09012	. A
C1	C2	0.08994	. A
C1	H1	0.07269	. A
C2	C3	0.09064	. A
C2	Cl1	0.11631	. A
C3	C4	0.09086	. A
C3	C6	0.09925	. A
C4	C5	0.09027	. A
C4	H2	0.07256	. A
C5	Cl2	0.11584	. A
C6	C7	0.08947	. A
C6	H4	0.07284	. A
C7	C8	0.10056	. A
C7	H3	0.07190	. A
C8	O1	0.09543	. A
C8	C10	0.10128	. A
C8	H10	0.07322	. A
O1	C11	0.09619	. A
C9	C10	0.09958	. A
C9	H6	0.07315	. A
C9	H7	0.07296	. A
C9	C11	0.10159	. A
C10	H5	0.07291	. A
C10	H8	0.07319	. A
H9	C11	0.07303	. A
