data_tobacco_crystal_2_PM
_symmetry_space_group_name_H-M	'P1'
_cell_length_a	15.000000
_cell_length_b	15.000000
_cell_length_c	15.000000
_cell_angle_alpha	90.000000
_cell_angle_beta	90.000000
_cell_angle_gamma	90.000000
_symmetry_Int_Tables_number 1

loop_
_symmetry_equiv_pos_as_xyz
'x,y,z'

loop_
_atom_site_label
_atom_site_type_symbol
_atom_site_fract_x
_atom_site_fract_y
_atom_site_fract_z
X1	C	0.017486	-0.318146	-0.017415
C1	C	-0.062114	-0.281013	-0.036882
C2	C	-0.073847	-0.192680	-0.035815
C3	C	-0.007114	-0.136280	-0.013215
C4	C	0.074819	-0.172946	0.000852
C5	C	0.088019	-0.263213	-0.000882
C6	C	-0.027581	-0.039680	0.012518
H1	H	-0.141581	-0.168480	-0.046082
H2	H	-0.120714	-0.323080	-0.050282
Br1	Br	0.203419	-0.308946	0.026918
N1	N	0.145953	-0.114613	0.023985
H3	H	0.141019	-0.048546	0.009385
H4	H	0.208486	-0.138080	0.033585
O1	O	0.023619	0.034387	-0.025148
C7	C	-0.114247	0.091854	0.024918
C8	C	-0.123314	-0.006946	0.006052
C9	C	0.007419	0.206520	0.004718
H5	H	-0.167781	-0.039946	0.053252
H6	H	-0.142847	0.110654	0.089318
H7	H	-0.149914	0.128987	-0.026748
H8	H	-0.149981	-0.015946	-0.061482
H9	H	0.012353	0.099320	0.091852
C10	C	-0.013514	0.109054	0.023852
H10	H	-0.011247	-0.040013	0.084385
C11	C	0.099953	0.240054	-0.012282
N2	N	0.073886	0.327454	-0.045415
N3	N	-0.007781	0.322520	-0.087215
N4	N	-0.041314	0.246720	-0.071415
H11	H	0.134219	0.205120	-0.066482
H12	H	0.142019	0.243987	0.047052
H13	H	-0.017781	0.241920	0.064118

loop_
_geom_bond_atom_site_label_1
_geom_bond_atom_site_label_2
_geom_bond_distance
_ccdc_geom_bond_type
X1	C1	0.08997	. A
X1	C5	0.09092	. A
C1	C2	0.08912	. A
C1	H2	0.07337	. A
C2	C3	0.09025	. A
C2	H1	0.07266	. A
C3	C4	0.09086	. A
C3	C6	0.10204	. A
C4	C5	0.09124	. A
C4	N1	0.09486	. A
C6	O1	0.09760	. A
C6	C8	0.10138	. A
C6	H10	0.07370	. A
N1	H3	0.06784	. A
N1	H4	0.06748	. A
O1	C10	0.09672	. A
C7	C8	0.10099	. A
C7	H6	0.07293	. A
C7	H7	0.07294	. A
C7	C10	0.10220	. A
C8	H5	0.07276	. A
C8	H8	0.07316	. A
C9	C10	0.10151	. A
C9	C11	0.09988	. A
C9	N4	0.09893	. A
C9	H13	0.07360	. A
H9	C10	0.07340	. A
C11	N2	0.09704	. A
C11	H11	0.07302	. A
C11	H12	0.07284	. A
N2	N3	0.09188	. A
N3	N4	0.08438	. A
