data_tobacco_crystal_2_PM
_symmetry_space_group_name_H-M	'P1'
_cell_length_a	15.000000
_cell_length_b	15.000000
_cell_length_c	15.000000
_cell_angle_alpha	90.000000
_cell_angle_beta	90.000000
_cell_angle_gamma	90.000000
_symmetry_Int_Tables_number 1

loop_
_symmetry_equiv_pos_as_xyz
'x,y,z'

loop_
_atom_site_label
_atom_site_type_symbol
_atom_site_fract_x
_atom_site_fract_y
_atom_site_fract_z
X1	C	0.001069	-0.319637	0.000000
C1	C	-0.077931	-0.275437	0.000000
C2	C	-0.079731	-0.186570	0.000000
C3	C	-0.003664	-0.136770	0.000000
C4	C	0.075202	-0.182570	0.000000
C5	C	0.076269	-0.271637	0.000000
C6	C	-0.007131	-0.037970	0.000000
H1	H	-0.145864	-0.155970	0.000000
H2	H	-0.140664	-0.312437	0.000000
H3	H	0.141869	-0.300770	0.000000
O1	O	0.158069	-0.142237	0.000000
H4	H	0.209736	-0.180704	0.000000
C7	C	-0.084064	0.009896	0.000000
C8	C	-0.082131	0.099696	0.000000
C9	C	-0.003931	0.143630	0.000000
C10	C	0.072402	0.097896	0.000000
C11	C	0.069136	0.009830	0.000000
C12	C	0.007602	0.237563	0.000000
H5	H	-0.145598	0.134296	0.000000
H6	H	-0.149731	-0.020304	0.000000
H7	H	0.135202	-0.016570	0.000000
H8	H	0.137869	0.129163	0.000000
C13	C	-0.059464	0.294896	0.000000
C14	C	-0.037064	0.384430	0.000000
H9	H	-0.128731	0.275630	0.000000
H10	H	0.076402	0.261830	0.000000
C15	C	-0.015131	0.460830	0.000000

loop_
_geom_bond_atom_site_label_1
_geom_bond_atom_site_label_2
_geom_bond_distance
_ccdc_geom_bond_type
X1	C1	0.09052	. A
X1	C5	0.08921	. A
C1	C2	0.08888	. A
C1	H2	0.07283	. A
C2	C3	0.09092	. A
C2	H1	0.07287	. A
C3	C4	0.09120	. A
C3	C6	0.09886	. A
C4	C5	0.08907	. A
C4	O1	0.09216	. A
C5	H3	0.07178	. A
C6	C7	0.09061	. A
C6	C11	0.09001	. A
O1	H4	0.06441	. A
C7	C8	0.08982	. A
C7	H6	0.07228	. A
C8	C9	0.08970	. A
C8	H5	0.07229	. A
C9	C10	0.08898	. A
C9	C12	0.09464	. A
C10	C11	0.08813	. A
C10	H8	0.07255	. A
C11	H7	0.07115	. A
C12	C13	0.08823	. A
C12	H10	0.07295	. A
C13	C14	0.09229	. A
C13	H9	0.07190	. A
C14	C15	0.07949	. A
