data_tobacco_crystal_2_PM
_symmetry_space_group_name_H-M	'P1'
_cell_length_a	15.000000
_cell_length_b	15.000000
_cell_length_c	15.000000
_cell_angle_alpha	90.000000
_cell_angle_beta	90.000000
_cell_angle_gamma	90.000000
_symmetry_Int_Tables_number 1

loop_
_symmetry_equiv_pos_as_xyz
'x,y,z'

loop_
_atom_site_label
_atom_site_type_symbol
_atom_site_fract_x
_atom_site_fract_y
_atom_site_fract_z
X1	C	-0.002170	-0.351578	0.009746
C1	C	-0.084704	-0.314511	0.010080
C2	C	-0.096637	-0.226311	0.005080
C3	C	-0.026437	-0.170044	-0.001454
C4	C	0.055696	-0.206178	0.003946
C5	C	0.069696	-0.295778	0.008946
C6	C	-0.040104	-0.072378	-0.024387
H1	H	-0.164970	-0.202578	0.001880
H2	H	-0.144704	-0.355511	0.011880
C7	C	0.166096	-0.324378	0.011013
H3	H	0.112296	-0.160778	-0.000054
O1	O	0.013630	-0.004444	0.019280
C8	C	-0.122637	0.062489	-0.019387
C9	C	-0.134904	-0.036978	-0.016654
C10	C	0.011696	0.167756	0.007413
H4	H	-0.178237	-0.060911	-0.070254
H5	H	-0.154637	0.092956	-0.077520
H6	H	-0.153637	0.089956	0.040813
H7	H	-0.165304	-0.055111	0.047346
H8	H	-0.000237	0.072422	-0.091787
C11	C	-0.021370	0.075956	-0.021454
H9	H	-0.021237	-0.069511	-0.095387
C12	C	-0.048504	0.233822	0.021080
C13	C	-0.023704	0.319022	0.029613
C14	C	0.062763	0.342022	0.025213
C15	C	0.124696	0.277489	0.016680
C16	C	0.099096	0.190956	0.008146
C17	C	0.079630	0.435356	0.023746
H10	H	-0.075237	0.369756	0.035946
H11	H	-0.119770	0.222422	0.020546
H12	H	0.149696	0.140222	-0.002654
H13	H	0.194963	0.294422	0.012746
C18	C	0.063830	0.513356	0.015213
H14	H	0.184230	-0.358044	-0.051187
H15	H	0.211896	-0.267778	0.017480
H16	H	0.179230	-0.367578	0.068346

loop_
_geom_bond_atom_site_label_1
_geom_bond_atom_site_label_2
_geom_bond_distance
_ccdc_geom_bond_type
X1	C1	0.09048	. A
X1	C5	0.09099	. A
C1	C2	0.08914	. A
C1	H2	0.07269	. A
C2	C3	0.09020	. A
C2	H1	0.07241	. A
C3	C4	0.08989	. A
C3	C6	0.10125	. A
C4	C5	0.09082	. A
C4	H3	0.07267	. A
C5	C7	0.10057	. A
C6	O1	0.09700	. A
C6	C9	0.10149	. A
C6	H9	0.07352	. A
C7	H14	0.07301	. A
C7	H15	0.07310	. A
C7	H16	0.07298	. A
O1	C11	0.09669	. A
C8	C9	0.10026	. A
C8	H5	0.07302	. A
C8	H6	0.07307	. A
C8	C11	0.10218	. A
C9	H4	0.07296	. A
C9	H7	0.07314	. A
C10	C11	0.10175	. A
C10	C12	0.09042	. A
C10	C16	0.09043	. A
H8	C11	0.07352	. A
C12	C13	0.08915	. A
C12	H11	0.07217	. A
C13	C14	0.08958	. A
C13	H10	0.07259	. A
C14	C15	0.08985	. A
C14	C17	0.09486	. A
C15	C16	0.09064	. A
C15	H13	0.07239	. A
C16	H12	0.07246	. A
C17	C18	0.08004	. A
