data_tobacco_crystal_2_PM
_symmetry_space_group_name_H-M	'P1'
_cell_length_a	15.000000
_cell_length_b	15.000000
_cell_length_c	15.000000
_cell_angle_alpha	90.000000
_cell_angle_beta	90.000000
_cell_angle_gamma	90.000000
_symmetry_Int_Tables_number 1

loop_
_symmetry_equiv_pos_as_xyz
'x,y,z'

loop_
_atom_site_label
_atom_site_type_symbol
_atom_site_fract_x
_atom_site_fract_y
_atom_site_fract_z
X1	C	0.051668	-0.299549	-0.021837
C1	C	-0.030465	-0.260882	-0.013704
C2	C	-0.033198	-0.171549	-0.000970
C3	C	0.039535	-0.118082	0.005230
C4	C	0.119468	-0.158016	-0.006770
C5	C	0.124735	-0.246416	-0.019704
C6	C	0.028468	-0.020882	0.036896
H1	H	-0.098265	-0.141749	0.008230
C7	C	-0.117865	-0.314149	-0.014837
F1	F	0.207202	-0.282149	-0.027570
H2	H	0.180402	-0.119082	-0.001837
O1	O	0.075068	0.051984	-0.007304
C8	C	-0.056998	0.111318	0.056630
C9	C	-0.067065	0.013451	0.037696
C10	C	0.056002	0.226918	0.008230
H3	H	-0.109665	-0.019216	0.086963
H4	H	-0.075798	0.128518	0.124896
H5	H	-0.101465	0.148318	0.012163
H6	H	-0.097398	0.005518	-0.028504
H7	H	0.076335	0.126918	0.105496
C11	C	0.042068	0.129918	0.040763
H8	H	0.053335	-0.021816	0.105963
C12	C	-0.205798	-0.262349	-0.011970
H9	H	-0.212532	-0.223949	0.049763
H10	H	-0.211332	-0.216816	-0.068837
H11	H	-0.262265	-0.308482	-0.015037
H12	H	-0.120532	-0.354082	-0.075904
H13	H	-0.117998	-0.359549	0.042630
C13	C	0.150135	0.258451	-0.011304
C14	C	0.134935	0.347718	-0.058637
N1	N	0.040135	0.346718	-0.088104
N2	N	0.009335	0.256051	-0.072570
H14	H	-0.058398	0.252918	-0.065904
H15	H	0.006402	0.392984	-0.049970
H16	H	0.189335	0.265118	0.049896
H17	H	0.177735	0.355451	-0.117237
H18	H	0.184335	0.212184	-0.056304
H19	H	0.030402	0.268318	0.063363

loop_
_geom_bond_atom_site_label_1
_geom_bond_atom_site_label_2
_geom_bond_distance
_ccdc_geom_bond_type
X1	C1	0.09114	. A
X1	C5	0.09037	. A
C1	C2	0.09028	. A
C1	C7	0.10236	. A
C2	C3	0.09048	. A
C2	H1	0.07216	. A
C3	C4	0.09016	. A
C3	C6	0.10283	. A
C4	C5	0.08950	. A
C4	H2	0.07248	. A
C5	F1	0.09022	. A
C6	O1	0.09713	. A
C6	C9	0.10152	. A
C6	H8	0.07341	. A
C7	C12	0.10210	. A
C7	H12	0.07301	. A
C7	H13	0.07324	. A
O1	C11	0.09733	. A
C8	C9	0.10019	. A
C8	H4	0.07287	. A
C8	H5	0.07296	. A
C8	C11	0.10204	. A
C9	H3	0.07286	. A
C9	H6	0.07325	. A
C10	C11	0.10325	. A
C10	C13	0.10118	. A
C10	N2	0.09775	. A
C10	H19	0.07355	. A
H7	C11	0.07330	. A
C12	H9	0.07301	. A
C12	H10	0.07306	. A
C12	H11	0.07298	. A
C13	C14	0.10218	. A
C13	H16	0.07298	. A
C13	H18	0.07304	. A
C14	N1	0.09928	. A
C14	H17	0.07298	. A
N1	N2	0.09701	. A
N1	H15	0.06879	. A
N2	H14	0.06813	. A
