data_tobacco_crystal_2_PM
_symmetry_space_group_name_H-M	'P1'
_cell_length_a	15.000000
_cell_length_b	15.000000
_cell_length_c	15.000000
_cell_angle_alpha	90.000000
_cell_angle_beta	90.000000
_cell_angle_gamma	90.000000
_symmetry_Int_Tables_number 1

loop_
_symmetry_equiv_pos_as_xyz
'x,y,z'

loop_
_atom_site_label
_atom_site_type_symbol
_atom_site_fract_x
_atom_site_fract_y
_atom_site_fract_z
X1	C	0.000696	-0.224246	0.000000
C1	C	-0.077771	-0.178512	0.000000
C2	C	-0.079837	-0.088779	0.000000
C3	C	-0.002371	-0.043379	0.000000
C4	C	0.074896	-0.088646	0.000000
C5	C	0.078562	-0.178246	0.000000
N1	N	0.007696	0.046221	0.000000
H1	H	-0.143437	-0.053712	0.000000
H2	H	-0.141971	-0.212846	0.000000
Br1	Br	0.193563	-0.227579	0.000000
H3	H	0.135563	-0.048912	0.000000
N2	N	-0.058038	0.095221	0.000000
C6	C	-0.023504	0.176488	0.000000
C7	C	0.006229	0.250021	0.000000
C8	C	0.018629	0.348954	0.000000
C9	C	0.011096	0.427954	0.000000

loop_
_geom_bond_atom_site_label_1
_geom_bond_atom_site_label_2
_geom_bond_distance
_ccdc_geom_bond_type
X1	C1	0.09082	. A
X1	C5	0.09044	. A
C1	C2	0.08976	. A
C1	H2	0.07280	. A
C2	C3	0.08979	. A
C2	H1	0.07263	. A
C3	C4	0.08955	. A
C3	N1	0.09016	. A
C4	C5	0.08967	. A
C4	H3	0.07252	. A
C5	Br1	0.12514	. A
N1	N2	0.08199	. A
N2	C6	0.08830	. A
C6	C7	0.07932	. A
C7	C8	0.09971	. A
C8	C9	0.07936	. A
