data_tobacco_crystal_2_PM
_symmetry_space_group_name_H-M	'P1'
_cell_length_a	15.000000
_cell_length_b	15.000000
_cell_length_c	15.000000
_cell_angle_alpha	90.000000
_cell_angle_beta	90.000000
_cell_angle_gamma	90.000000
_symmetry_Int_Tables_number 1

loop_
_symmetry_equiv_pos_as_xyz
'x,y,z'

loop_
_atom_site_label
_atom_site_type_symbol
_atom_site_fract_x
_atom_site_fract_y
_atom_site_fract_z
X1	C	0.003136	-0.582205	0.015437
C1	C	-0.080597	-0.549072	0.017104
C2	C	-0.094797	-0.460805	0.011304
C3	C	-0.026197	-0.402939	0.002904
C4	C	0.057669	-0.435872	0.006904
C5	C	0.072403	-0.524405	0.013171
C6	C	-0.041331	-0.307339	-0.024763
H1	H	-0.163797	-0.438739	0.008637
H2	H	-0.138397	-0.592739	0.019704
H3	H	0.141336	-0.545672	0.012704
H4	H	0.114069	-0.390539	0.000971
O1	O	0.000669	-0.237405	0.026704
C7	C	-0.128531	-0.177139	-0.040763
C8	C	-0.137531	-0.276672	-0.033096
C9	C	-0.006397	-0.068139	0.014504
H5	H	-0.172264	-0.306072	-0.090029
H6	H	-0.147064	-0.151605	-0.106496
H7	H	-0.174997	-0.148739	0.007504
H8	H	-0.175464	-0.291672	0.027704
H9	H	0.005203	-0.162205	-0.086163
C10	C	-0.029264	-0.159472	-0.021296
H10	H	-0.011464	-0.303805	-0.091829
C11	C	-0.071531	-0.013805	0.044304
C12	C	-0.057264	0.073395	0.054637
C13	C	0.022136	0.110861	0.035837
C14	C	0.090269	0.056195	0.013704
C15	C	0.075869	-0.032339	0.003037
C16	C	0.025336	0.211595	0.043904
H11	H	-0.113731	0.112861	0.076371
H12	H	-0.139197	-0.035939	0.056637
H13	H	0.130736	-0.074605	-0.018829
H14	H	0.156603	0.083061	0.000504
C17	C	0.097136	0.273595	0.006237
C18	C	0.053603	0.365528	0.026237
N1	N	-0.043131	0.345595	0.030171
N2	N	-0.050331	0.256461	-0.000963
C19	C	0.070869	0.441461	-0.040163
H15	H	-0.110197	0.228995	0.014971
H16	H	-0.077997	0.390595	-0.007896
H17	H	0.161536	0.265661	0.039571
H18	H	0.073136	0.385928	0.093704
H19	H	0.106936	0.263395	-0.065696
H20	H	0.021669	0.223528	0.116304
C20	C	0.147203	0.501928	-0.015096
N3	N	0.103403	0.587261	-0.013563
N4	N	0.014069	0.581995	-0.024029
N5	N	-0.007597	0.502861	-0.038963
H21	H	0.175536	0.488928	0.050904
H22	H	0.200936	0.501995	-0.064363
H23	H	0.077603	0.416261	-0.108296

loop_
_geom_bond_atom_site_label_1
_geom_bond_atom_site_label_2
_geom_bond_distance
_ccdc_geom_bond_type
X1	C1	0.09007	. A
X1	C5	0.09024	. A
X1	C18	0.07345	. A
X1	N1	0.08701	. A
X1	C19	0.09077	. A
X1	H16	0.08870	. A
X1	H18	0.10973	. A
X1	N5	0.10154	. A
C1	C2	0.08959	. A
C1	H2	0.07249	. A
C1	N1	0.11256	. A
C1	H16	0.06536	. A
C1	N5	0.10569	. A
C2	C3	0.09014	. A
C2	H1	0.07249	. A
C2	N4	0.12220	. A
C2	N5	0.10701	. A
C3	C4	0.09019	. A
C3	C6	0.10067	. A
C3	N4	0.05073	. A
C3	N5	0.10475	. A
C4	C5	0.08997	. A
C4	H4	0.07260	. A
C4	C20	0.11122	. A
C4	N3	0.05519	. A
C4	N4	0.05637	. A
C4	N5	0.10058	. A
C5	H3	0.07214	. A
C5	C18	0.11242	. A
C5	C19	0.06334	. A
C5	H18	0.12052	. A
C5	C20	0.08419	. A
C5	N3	0.11893	. A
C5	N5	0.09930	. A
C5	H21	0.11063	. A
C6	O1	0.09645	. A
C6	C8	0.10131	. A
C6	H10	0.07350	. A
C6	N4	0.12376	. A
H2	H16	0.06847	. A
H3	C20	0.05543	. A
H3	H21	0.06185	. A
H4	N3	0.02860	. A
O1	C10	0.09630	. A
C7	C8	0.10023	. A
C7	H6	0.07291	. A
C7	H7	0.07277	. A
C7	C10	0.10269	. A
C8	H5	0.07288	. A
C8	H8	0.07322	. A
C9	C10	0.10073	. A
C9	C11	0.08990	. A
C9	C15	0.09045	. A
H9	C10	0.07351	. A
C11	C12	0.08896	. A
C11	H12	0.07225	. A
C12	C13	0.08979	. A
C12	H11	0.07224	. A
C13	C14	0.09011	. A
C13	C16	0.10111	. A
C14	C15	0.09033	. A
C14	H14	0.07277	. A
C15	H13	0.07263	. A
C16	C17	0.10207	. A
C16	N2	0.09875	. A
C16	H20	0.07347	. A
C17	C18	0.10367	. A
C17	H17	0.07295	. A
C17	H19	0.07331	. A
C18	N1	0.09884	. A
C18	C19	0.10234	. A
C18	H18	0.07314	. A
N1	N2	0.09469	. A
N1	H16	0.06848	. A
N2	H15	0.06777	. A
C19	C20	0.10056	. A
C19	N5	0.09964	. A
C19	H23	0.07296	. A
C20	N3	0.09593	. A
C20	H21	0.07299	. A
C20	H22	0.07290	. A
N3	N4	0.09010	. A
N4	N5	0.08339	. A
