data_tobacco_crystal_2_PM
_symmetry_space_group_name_H-M	'P1'
_cell_length_a	15.000000
_cell_length_b	15.000000
_cell_length_c	15.000000
_cell_angle_alpha	90.000000
_cell_angle_beta	90.000000
_cell_angle_gamma	90.000000
_symmetry_Int_Tables_number 1

loop_
_symmetry_equiv_pos_as_xyz
'x,y,z'

loop_
_atom_site_label
_atom_site_type_symbol
_atom_site_fract_x
_atom_site_fract_y
_atom_site_fract_z
X1	C	-0.033335	-0.414633	-0.022407
C1	C	-0.108535	-0.365167	-0.019007
C2	C	-0.104869	-0.276033	-0.011341
C3	C	-0.026869	-0.230967	-0.005474
C4	C	0.048265	-0.280700	-0.011607
C5	C	0.046265	-0.371233	-0.019674
C6	C	-0.029202	-0.130300	0.014059
H1	H	-0.168869	-0.242300	-0.007207
H2	H	-0.174269	-0.395767	-0.021407
Br1	Br	0.157665	-0.429967	-0.023941
H3	H	0.112331	-0.247033	-0.007007
C7	C	0.041198	-0.057300	-0.009207
C8	C	-0.009335	0.023567	0.028659
N1	N	-0.101535	0.007833	-0.003941
N2	N	-0.111002	-0.086367	-0.019274
C9	C	0.010798	0.125100	0.026926
H4	H	-0.164735	-0.109233	0.015726
H5	H	-0.108002	0.042300	-0.063074
H6	H	0.104531	-0.068767	0.025126
H7	H	-0.012002	0.010033	0.100859
H8	H	0.052998	-0.052300	-0.081207
H9	H	-0.033469	-0.130367	0.087593
C10	C	0.093865	0.174567	-0.003741
C11	C	0.062131	0.270767	0.017659
N3	N	-0.032335	0.271100	-0.010541
N4	N	-0.058802	0.178367	-0.019207
C12	C	0.112331	0.352100	-0.012674
H10	H	-0.118869	0.166233	0.011526
H11	H	-0.037202	0.301433	-0.071607
H12	H	0.107731	0.165833	-0.075007
H13	H	0.062398	0.276367	0.090926
H14	H	0.153131	0.156967	0.034926
H15	H	0.003531	0.142433	0.098126
C13	C	0.075198	0.434033	-0.012541
H16	H	0.005865	0.444433	0.005726
H17	H	0.182998	0.344967	-0.026741

loop_
_geom_bond_atom_site_label_1
_geom_bond_atom_site_label_2
_geom_bond_distance
_ccdc_geom_bond_type
X1	C1	0.09008	. A
X1	C5	0.09070	. A
C1	C2	0.08954	. A
C1	H2	0.07255	. A
C2	C3	0.09027	. A
C2	H1	0.07246	. A
C3	C4	0.09031	. A
C3	C6	0.10257	. A
C4	C5	0.09091	. A
C4	H3	0.07252	. A
C5	Br1	0.12601	. A
C6	C7	0.10405	. A
C6	N2	0.09865	. A
C6	H9	0.07366	. A
C7	C8	0.10260	. A
C7	H6	0.07295	. A
C7	H8	0.07313	. A
C8	N1	0.09905	. A
C8	C9	0.10352	. A
C8	H7	0.07351	. A
N1	N2	0.09591	. A
N1	H5	0.06875	. A
N2	H4	0.06808	. A
C9	C10	0.10143	. A
C9	N4	0.09904	. A
C9	H15	0.07364	. A
C10	C11	0.10353	. A
C10	H12	0.07313	. A
C10	H14	0.07292	. A
C11	N3	0.09859	. A
C11	C12	0.10028	. A
C11	H13	0.07348	. A
N3	N4	0.09682	. A
N3	H11	0.06836	. A
N4	H10	0.06855	. A
C12	C13	0.08996	. A
C12	H17	0.07241	. A
C13	H16	0.07245	. A
