data_tobacco_crystal_2_PM
_symmetry_space_group_name_H-M	'P1'
_cell_length_a	15.000000
_cell_length_b	15.000000
_cell_length_c	15.000000
_cell_angle_alpha	90.000000
_cell_angle_beta	90.000000
_cell_angle_gamma	90.000000
_symmetry_Int_Tables_number 1

loop_
_symmetry_equiv_pos_as_xyz
'x,y,z'

loop_
_atom_site_label
_atom_site_type_symbol
_atom_site_fract_x
_atom_site_fract_y
_atom_site_fract_z
X1	C	0.037471	-0.375817	0.001575
C1	C	-0.038929	-0.336283	-0.023625
C2	C	-0.044129	-0.247017	-0.030025
C3	C	0.024338	-0.191883	-0.007692
C4	C	0.101938	-0.234150	0.013442
C5	C	0.109004	-0.323883	0.017642
C6	C	0.015404	-0.090883	-0.005958
H1	H	-0.108262	-0.223417	-0.052825
H2	H	-0.098329	-0.375617	-0.037892
H3	H	0.172804	-0.351750	0.037308
H4	H	0.162138	-0.197483	0.029708
C7	C	-0.063662	-0.045150	-0.004225
C8	C	-0.067663	0.045383	-0.008692
C9	C	0.007937	0.095850	-0.001558
C10	C	0.085938	0.050717	0.001975
C11	C	0.089337	-0.038750	-0.002892
C12	C	0.006271	0.195783	0.004242
O1	O	-0.149996	0.087717	-0.019692
C13	C	-0.148262	-0.088017	0.007575
H5	H	0.156137	-0.066883	-0.002292
H6	H	0.149004	0.085650	0.008842
N1	N	-0.219529	-0.115750	0.017908
H7	H	-0.200462	0.049183	-0.032892
C14	C	-0.066463	0.239917	0.035708
C15	C	-0.071729	0.329250	0.037775
C16	C	-0.001729	0.378517	0.011508
C17	C	0.073337	0.337450	-0.015692
C18	C	0.076671	0.247583	-0.020158
H8	H	-0.133129	0.359983	0.060842
H9	H	-0.124929	0.204983	0.060042
H10	H	0.138137	0.218383	-0.044692
H11	H	0.131337	0.376383	-0.035292

loop_
_geom_bond_atom_site_label_1
_geom_bond_atom_site_label_2
_geom_bond_distance
_ccdc_geom_bond_type
X1	C1	0.08964	. A
X1	C5	0.08985	. A
C1	C2	0.08965	. A
C1	H2	0.07266	. A
C2	C3	0.09070	. A
C2	H1	0.07204	. A
C3	C4	0.09086	. A
C3	C6	0.10141	. A
C4	C5	0.09011	. A
C4	H4	0.07234	. A
C5	H3	0.07234	. A
C6	C7	0.09136	. A
C6	C11	0.09052	. A
C7	C8	0.09073	. A
C7	C13	0.09557	. A
C8	C9	0.09118	. A
C8	O1	0.09323	. A
C9	C10	0.09019	. A
C9	C12	0.10012	. A
C10	C11	0.08966	. A
C10	H6	0.07242	. A
C11	H5	0.07249	. A
C12	C14	0.09071	. A
C12	C18	0.09075	. A
O1	H7	0.06485	. A
C13	N1	0.07717	. A
C14	C15	0.08951	. A
C14	H9	0.07232	. A
C15	C16	0.08954	. A
C15	H8	0.07243	. A
C16	C17	0.08978	. A
C17	C18	0.09004	. A
C17	H11	0.07255	. A
C18	H10	0.07234	. A
