data_tobacco_crystal_2_PM
_symmetry_space_group_name_H-M	'P1'
_cell_length_a	15.000000
_cell_length_b	15.000000
_cell_length_c	15.000000
_cell_angle_alpha	90.000000
_cell_angle_beta	90.000000
_cell_angle_gamma	90.000000
_symmetry_Int_Tables_number 1

loop_
_symmetry_equiv_pos_as_xyz
'x,y,z'

loop_
_atom_site_label
_atom_site_type_symbol
_atom_site_fract_x
_atom_site_fract_y
_atom_site_fract_z
X1	C	0.042756	-0.349946	-0.005727
C1	C	-0.043710	-0.328279	-0.014194
C2	C	-0.069844	-0.242279	-0.011727
C3	C	-0.009244	-0.174946	-0.001394
C4	C	0.078090	-0.198679	0.004073
C5	C	0.104223	-0.284813	0.002473
C6	C	-0.039310	-0.078146	0.011140
Cl1	Cl	-0.184244	-0.222813	-0.017860
F1	F	-0.105377	-0.393546	-0.024394
H1	H	0.174356	-0.301146	0.010673
H2	H	0.128623	-0.147413	0.013606
O1	O	0.030623	-0.012479	0.028073
C7	C	-0.071177	0.063588	-0.059927
C8	C	-0.096377	-0.034612	-0.061994
C9	C	0.032756	0.157454	0.043606
H3	H	-0.167377	-0.041813	-0.046527
H4	H	-0.030044	0.079187	-0.118127
H5	H	-0.129710	0.107121	-0.060594
H6	H	-0.084910	-0.063346	-0.128060
H7	H	-0.065844	0.066254	0.082073
C10	C	-0.018577	0.070654	0.026073
H8	H	-0.078177	-0.079213	0.073406
C11	C	0.101690	0.192388	-0.021794
C12	C	0.111690	0.288921	0.009406
N1	N	0.023356	0.313254	0.047073
N2	N	-0.030044	0.233254	0.046606
H9	H	-0.069644	0.229054	0.102073
H10	H	-0.003977	0.362054	0.007140
H11	H	0.164956	0.156387	-0.016860
H12	H	0.160156	0.293854	0.064006
H13	H	0.078890	0.189454	-0.091194
H14	H	0.065423	0.150587	0.108873

loop_
_geom_bond_atom_site_label_1
_geom_bond_atom_site_label_2
_geom_bond_distance
_ccdc_geom_bond_type
X1	C1	0.08954	. A
X1	C5	0.08993	. A
C1	C2	0.08992	. A
C1	F1	0.09037	. A
C2	C3	0.09118	. A
C2	Cl1	0.11621	. A
C3	C4	0.09067	. A
C3	C6	0.10213	. A
C4	C5	0.09002	. A
C4	H2	0.07261	. A
C5	H1	0.07248	. A
C6	O1	0.09741	. A
C6	C8	0.10247	. A
C6	H8	0.07341	. A
O1	C10	0.09662	. A
C7	C8	0.10140	. A
C7	H4	0.07296	. A
C7	H5	0.07295	. A
C7	C10	0.10106	. A
C8	H3	0.07302	. A
C8	H6	0.07295	. A
C9	C10	0.10236	. A
C9	C11	0.10124	. A
C9	N2	0.09848	. A
C9	H14	0.07331	. A
H7	C10	0.07341	. A
C11	C12	0.10194	. A
C11	H11	0.07296	. A
C11	H13	0.07311	. A
C12	N1	0.09906	. A
C12	H12	0.07317	. A
N1	N2	0.09619	. A
N1	H10	0.06873	. A
N2	H9	0.06828	. A
