data_tobacco_crystal_2_PM
_symmetry_space_group_name_H-M	'P1'
_cell_length_a	15.000000
_cell_length_b	15.000000
_cell_length_c	15.000000
_cell_angle_alpha	90.000000
_cell_angle_beta	90.000000
_cell_angle_gamma	90.000000
_symmetry_Int_Tables_number 1

loop_
_symmetry_equiv_pos_as_xyz
'x,y,z'

loop_
_atom_site_label
_atom_site_type_symbol
_atom_site_fract_x
_atom_site_fract_y
_atom_site_fract_z
X1	C	-0.041907	-0.149740	-0.004367
C1	C	-0.119240	-0.103073	-0.004433
C2	C	-0.117107	-0.013473	-0.009500
C3	C	-0.039373	0.031927	-0.012233
C4	C	0.039293	-0.012940	-0.010900
C5	C	0.035293	-0.103473	-0.007967
C6	C	-0.046440	0.126860	-0.014567
H1	H	-0.179573	0.023393	-0.010567
N1	N	-0.204840	-0.143340	0.000967
F1	F	0.113627	-0.148607	-0.007633
C7	C	0.133227	0.026993	-0.009367
C8	C	-0.053107	0.206460	-0.011833
C9	C	0.147493	0.123860	0.017767
H2	H	0.126760	0.169460	-0.035233
H3	H	0.112360	0.139993	0.079633
H4	H	0.218493	0.136393	0.029300
H5	H	0.173093	-0.011940	0.038233
H6	H	0.163893	0.016927	-0.075033
H7	H	-0.205907	-0.208473	0.021567
H8	H	-0.256040	-0.107207	0.026167

loop_
_geom_bond_atom_site_label_1
_geom_bond_atom_site_label_2
_geom_bond_distance
_ccdc_geom_bond_type
X1	C1	0.09032	. A
X1	C5	0.09007	. A
C1	C2	0.08977	. A
C1	N1	0.09475	. A
C2	C3	0.09006	. A
C2	H1	0.07254	. A
C3	C4	0.09057	. A
C3	C6	0.09522	. A
C4	C5	0.09067	. A
C4	C7	0.10208	. A
C5	F1	0.09041	. A
C6	C8	0.07993	. A
N1	H7	0.06832	. A
N1	H8	0.06754	. A
C7	C9	0.10160	. A
C7	H5	0.07329	. A
C7	H6	0.07317	. A
C9	H2	0.07293	. A
C9	H3	0.07295	. A
C9	H4	0.07301	. A
