data_tobacco_crystal_2_PM
_symmetry_space_group_name_H-M	'P1'
_cell_length_a	15.000000
_cell_length_b	15.000000
_cell_length_c	15.000000
_cell_angle_alpha	90.000000
_cell_angle_beta	90.000000
_cell_angle_gamma	90.000000
_symmetry_Int_Tables_number 1

loop_
_symmetry_equiv_pos_as_xyz
'x,y,z'

loop_
_atom_site_label
_atom_site_type_symbol
_atom_site_fract_x
_atom_site_fract_y
_atom_site_fract_z
X1	C	0.016174	-0.265345	-0.016649
C1	C	-0.060159	-0.219678	-0.000983
C2	C	-0.058759	-0.129878	0.001284
C3	C	0.016441	-0.081012	-0.010449
C4	C	0.091841	-0.126745	-0.031649
C5	C	0.090374	-0.217078	-0.035049
C6	C	0.013974	0.018655	0.011951
H1	H	-0.121293	-0.096812	0.017351
Cl1	Cl	-0.163626	-0.267545	0.021017
H2	H	0.152841	-0.249545	-0.051383
Br1	Br	0.203107	-0.070745	-0.050583
O1	O	0.058307	0.081455	-0.046249
C7	C	-0.058159	0.160988	0.019551
C8	C	-0.077226	0.062322	0.026484
C9	C	0.063041	0.247988	-0.045849
H3	H	-0.124693	0.044122	-0.026049
H4	H	-0.075359	0.198055	0.080017
H5	H	-0.097759	0.189188	-0.035316
H6	H	-0.106026	0.044522	0.091017
H7	H	0.079707	0.163322	0.061951
C10	C	0.041174	0.164588	-0.000383
H8	H	0.049907	0.021922	0.076084
C11	C	0.066174	0.327255	-0.056116

loop_
_geom_bond_atom_site_label_1
_geom_bond_atom_site_label_2
_geom_bond_distance
_ccdc_geom_bond_type
X1	C1	0.09032	. A
X1	C5	0.09041	. A
C1	C2	0.08984	. A
C1	Cl1	0.11611	. A
C2	C3	0.09045	. A
C2	H1	0.07254	. A
C3	C4	0.09070	. A
C3	C6	0.10218	. A
C4	C5	0.09041	. A
C4	Br1	0.12600	. A
C5	H2	0.07227	. A
C6	O1	0.09642	. A
C6	C8	0.10215	. A
C6	H8	0.07359	. A
O1	C10	0.09648	. A
C7	C8	0.10073	. A
C7	H4	0.07298	. A
C7	H5	0.07331	. A
C7	C10	0.10138	. A
C8	H3	0.07310	. A
C8	H6	0.07288	. A
C9	C10	0.09747	. A
C9	C11	0.07999	. A
H7	C10	0.07329	. A
