data_tobacco_crystal_2_PM
_symmetry_space_group_name_H-M	'P1'
_cell_length_a	15.000000
_cell_length_b	15.000000
_cell_length_c	15.000000
_cell_angle_alpha	90.000000
_cell_angle_beta	90.000000
_cell_angle_gamma	90.000000
_symmetry_Int_Tables_number 1

loop_
_symmetry_equiv_pos_as_xyz
'x,y,z'

loop_
_atom_site_label
_atom_site_type_symbol
_atom_site_fract_x
_atom_site_fract_y
_atom_site_fract_z
X1	C	0.058456	-0.323411	-0.007028
C1	C	-0.016477	-0.277211	0.011039
C2	C	-0.017077	-0.186811	0.014639
C3	C	0.060123	-0.140944	0.000172
C4	C	0.135256	-0.188544	-0.017161
C5	C	0.134723	-0.278277	-0.021695
C6	C	0.069856	-0.044344	0.009972
C7	C	-0.165877	-0.152144	-0.023961
H1	H	-0.078077	-0.312877	0.024905
H2	H	0.196989	-0.311411	-0.037561
H3	H	0.198123	-0.153944	-0.027695
C8	C	0.012923	0.019856	-0.016295
C9	C	0.019189	0.114256	0.016572
H4	H	-0.047544	0.001789	-0.051561
H5	H	0.130123	-0.023544	0.044972
O1	O	0.074189	0.173989	-0.035428
C10	C	-0.045477	0.259456	0.017372
C11	C	-0.070677	0.161789	0.019305
C12	C	0.085456	0.340189	-0.035561
H6	H	-0.109944	0.144256	0.078172
H7	H	-0.065811	0.295856	0.077239
H8	H	-0.078011	0.291856	-0.039695
H9	H	-0.110811	0.146656	-0.039895
H10	H	0.087456	0.255923	0.073305
C13	C	0.055656	0.258323	0.007372
H11	H	0.047123	0.112589	0.084372
C14	C	0.092523	0.419456	-0.045161
H12	H	-0.158011	-0.208277	-0.070028
H13	H	-0.171344	-0.090544	-0.062628
H14	H	-0.228077	-0.161144	0.013105
O2	O	-0.094944	-0.142811	0.038839

loop_
_geom_bond_atom_site_label_1
_geom_bond_atom_site_label_2
_geom_bond_distance
_ccdc_geom_bond_type
X1	C1	0.08987	. A
X1	C5	0.08983	. A
C1	C2	0.09047	. A
C1	H1	0.07252	. A
C2	C3	0.09096	. A
C2	O2	0.09265	. A
C3	C4	0.09062	. A
C3	C6	0.09758	. A
C4	C5	0.08985	. A
C4	H3	0.07253	. A
C5	H2	0.07230	. A
C6	C8	0.08974	. A
C6	H5	0.07273	. A
C7	H12	0.07304	. A
C7	H13	0.07294	. A
C7	H14	0.07296	. A
C7	O2	0.09520	. A
C8	C9	0.10015	. A
C8	H4	0.07229	. A
C9	O1	0.09642	. A
C9	C11	0.10170	. A
C9	H11	0.07335	. A
O1	C13	0.09637	. A
C10	C11	0.10088	. A
C10	H7	0.07295	. A
C10	H8	0.07324	. A
C10	C13	0.10163	. A
C11	H6	0.07290	. A
C11	H9	0.07311	. A
C12	C13	0.09713	. A
C12	C14	0.08016	. A
H10	C13	0.07324	. A
