data_tobacco_crystal_2_PM
_symmetry_space_group_name_H-M	'P1'
_cell_length_a	15.000000
_cell_length_b	15.000000
_cell_length_c	15.000000
_cell_angle_alpha	90.000000
_cell_angle_beta	90.000000
_cell_angle_gamma	90.000000
_symmetry_Int_Tables_number 1

loop_
_symmetry_equiv_pos_as_xyz
'x,y,z'

loop_
_atom_site_label
_atom_site_type_symbol
_atom_site_fract_x
_atom_site_fract_y
_atom_site_fract_z
C1	C	-0.024469	-0.315344	0.004940
C2	C	-0.107536	-0.283144	-0.009127
C3	C	-0.121402	-0.194944	-0.017060
C4	C	-0.052736	-0.136744	-0.011527
C5	C	0.029264	-0.169611	0.007007
C6	C	0.044064	-0.257611	0.015473
C7	C	-0.068069	-0.039078	-0.029860
H1	H	-0.188669	-0.171011	-0.030460
H2	H	-0.164269	-0.327944	-0.016193
N1	N	0.132931	-0.284478	0.033473
H3	H	0.085998	-0.125078	0.012607
C8	C	0.005931	0.025522	-0.007060
N2	N	-0.047136	0.103722	0.007207
N3	N	-0.130802	0.080522	0.035940
N4	N	-0.143669	-0.001144	0.021073
C9	C	-0.012136	0.189522	0.035207
H4	H	0.040398	0.010656	0.055540
H5	H	0.053131	0.034189	-0.061793
H6	H	-0.084336	-0.032144	-0.101127
C10	C	0.078931	0.216922	0.000073
N5	N	0.056531	0.289389	-0.060327
N6	N	-0.034802	0.297456	-0.066927
N7	N	-0.071069	0.256856	-0.003660
C11	C	0.091064	0.377256	-0.036193
H7	H	0.122664	0.238656	0.054540
H8	H	0.114064	0.164322	-0.036127
H9	H	-0.012802	0.191256	0.108207
C12	C	0.089864	0.453856	-0.014660
H10	H	0.175398	-0.241878	0.063807
H11	H	0.143664	-0.349944	0.047007

loop_
_geom_bond_atom_site_label_1
_geom_bond_atom_site_label_2
_geom_bond_distance
_ccdc_geom_bond_type
C1	C2	0.09019	. A
C1	C6	0.09023	. A
C2	C3	0.08964	. A
C2	H2	0.07263	. A
C3	C4	0.09018	. A
C3	H1	0.07264	. A
C4	C5	0.09026	. A
C4	C7	0.10055	. A
C5	C6	0.08964	. A
C5	H3	0.07234	. A
C6	N1	0.09457	. A
C7	C8	0.10084	. A
C7	N4	0.09873	. A
C7	H6	0.07343	. A
N1	H10	0.06737	. A
N1	H11	0.06771	. A
C8	N2	0.09558	. A
C8	H4	0.07299	. A
C8	H5	0.07279	. A
N2	N3	0.09145	. A
N2	C9	0.09680	. A
N3	N4	0.08400	. A
C9	C10	0.10138	. A
C9	N7	0.09756	. A
C9	H9	0.07302	. A
C10	N5	0.09696	. A
C10	H7	0.07315	. A
C10	H8	0.07288	. A
N5	N6	0.09193	. A
N5	C11	0.09744	. A
N6	N7	0.08346	. A
C11	C12	0.07958	. A
