data_tobacco_crystal_2_PM
_symmetry_space_group_name_H-M	'P1'
_cell_length_a	15.000000
_cell_length_b	15.000000
_cell_length_c	15.000000
_cell_angle_alpha	90.000000
_cell_angle_beta	90.000000
_cell_angle_gamma	90.000000
_symmetry_Int_Tables_number 1

loop_
_symmetry_equiv_pos_as_xyz
'x,y,z'

loop_
_atom_site_label
_atom_site_type_symbol
_atom_site_fract_x
_atom_site_fract_y
_atom_site_fract_z
X1	C	0.004737	-0.202937	0.009852
C1	C	-0.075596	-0.162537	0.008119
C2	C	-0.081996	-0.073470	0.000385
C3	C	-0.008730	-0.021004	-0.006148
C4	C	0.071404	-0.061937	-0.001081
C5	C	0.078137	-0.151137	0.006719
C6	C	-0.018730	0.078130	-0.023215
H1	H	-0.148663	-0.044870	-0.002748
F1	F	-0.152263	-0.209470	0.011719
F2	F	0.160270	-0.188070	0.009052
F3	F	0.147137	-0.013604	-0.006815
C7	C	0.053337	0.143796	0.002585
N1	N	-0.001596	0.221730	0.014319
N2	N	-0.087863	0.200063	0.032452
N3	N	-0.097863	0.117196	0.022252
H2	H	0.104004	0.153930	-0.048815
H3	H	0.085137	0.129063	0.066652
H4	H	-0.030863	0.085130	-0.095281

loop_
_geom_bond_atom_site_label_1
_geom_bond_atom_site_label_2
_geom_bond_distance
_ccdc_geom_bond_type
X1	C1	0.08994	. A
X1	C5	0.08989	. A
C1	C2	0.08963	. A
C1	F1	0.08996	. A
C2	C3	0.09035	. A
C2	H1	0.07261	. A
C3	C4	0.09013	. A
C3	C6	0.10109	. A
C4	C5	0.08979	. A
C4	F3	0.09003	. A
C5	F2	0.09009	. A
C6	C7	0.10085	. A
C6	N3	0.09927	. A
C6	H4	0.07342	. A
C7	N1	0.09607	. A
C7	H2	0.07288	. A
C7	H3	0.07303	. A
N1	N2	0.09078	. A
N2	N3	0.08409	. A
