data_tobacco_crystal_2_PM
_symmetry_space_group_name_H-M	'P1'
_cell_length_a	15.000000
_cell_length_b	15.000000
_cell_length_c	15.000000
_cell_angle_alpha	90.000000
_cell_angle_beta	90.000000
_cell_angle_gamma	90.000000
_symmetry_Int_Tables_number 1

loop_
_symmetry_equiv_pos_as_xyz
'x,y,z'

loop_
_atom_site_label
_atom_site_type_symbol
_atom_site_fract_x
_atom_site_fract_y
_atom_site_fract_z
X1	C	0.008638	-0.196612	0.002575
C1	C	-0.068362	-0.148412	0.001242
C2	C	-0.066562	-0.057079	0.000308
C3	C	0.012438	-0.011812	-0.000492
C4	C	0.087704	-0.061746	0.000175
C5	C	0.086304	-0.150946	0.002175
C6	C	0.029771	0.085054	-0.001025
Cl1	Cl	-0.168229	0.000988	0.000775
Cl2	Cl	-0.172896	-0.202079	0.000442
H1	H	0.151371	-0.182279	0.004108
H2	H	0.153304	-0.030079	-0.000225
C7	C	-0.023629	0.156788	-0.003158
N1	N	0.011104	0.241388	-0.002958
H3	H	-0.095496	0.152454	-0.005225
H4	H	0.100504	0.102388	0.000708
N2	N	-0.045963	0.301988	0.000575

loop_
_geom_bond_atom_site_label_1
_geom_bond_atom_site_label_2
_geom_bond_distance
_ccdc_geom_bond_type
X1	C1	0.09085	. A
X1	C5	0.09010	. A
C1	C2	0.09136	. A
C1	Cl2	0.11751	. A
C2	C3	0.09105	. A
C2	Cl1	0.11708	. A
C3	C4	0.09033	. A
C3	C6	0.09841	. A
C4	C5	0.08923	. A
C4	H2	0.07284	. A
C5	H1	0.07224	. A
C6	C7	0.08945	. A
C6	H4	0.07285	. A
C7	N1	0.09145	. A
C7	H3	0.07203	. A
N1	N2	0.08332	. A
