data_tobacco_crystal_2_PM
_symmetry_space_group_name_H-M	'P1'
_cell_length_a	15.000000
_cell_length_b	15.000000
_cell_length_c	15.000000
_cell_angle_alpha	90.000000
_cell_angle_beta	90.000000
_cell_angle_gamma	90.000000
_symmetry_Int_Tables_number 1

loop_
_symmetry_equiv_pos_as_xyz
'x,y,z'

loop_
_atom_site_label
_atom_site_type_symbol
_atom_site_fract_x
_atom_site_fract_y
_atom_site_fract_z
X1	C	-0.010915	-0.338007	-0.021043
C1	C	-0.090581	-0.297674	-0.024643
C2	C	-0.098715	-0.208207	-0.018643
C3	C	-0.025715	-0.153607	-0.007443
C4	C	0.056819	-0.194540	-0.010509
C5	C	0.061352	-0.285274	-0.016309
C6	C	-0.036115	-0.053407	0.019291
C7	C	-0.189781	-0.179540	-0.020976
H1	H	-0.150715	-0.338607	-0.030109
H2	H	0.126952	-0.315740	-0.014443
C8	C	0.151152	-0.154740	-0.005176
N1	N	-0.264648	-0.160474	-0.024043
O1	O	0.003552	0.012926	-0.038576
C9	C	-0.108248	0.086393	0.045357
C10	C	-0.127448	-0.011740	0.033691
C11	C	-0.002181	0.180860	-0.057843
H3	H	-0.167715	-0.016540	-0.027043
H4	H	-0.107915	0.105526	0.115824
H5	H	-0.161381	0.124193	0.013157
H6	H	-0.163915	-0.039474	0.090357
H7	H	0.032019	0.103726	0.060624
C12	C	-0.015515	0.098860	0.005091
H8	H	-0.001781	-0.049007	0.083891
C13	C	0.086552	0.229460	-0.039709
C14	C	0.062952	0.310793	0.017491
N2	N	-0.034715	0.304326	0.029491
N3	N	-0.064915	0.255526	-0.047243
H9	H	-0.129648	0.235060	-0.042243
H10	H	-0.059648	0.368460	0.030357
H11	H	0.134885	0.186860	-0.005309
H12	H	0.095552	0.308793	0.082824
H13	H	0.116685	0.250060	-0.103109
H14	H	-0.003381	0.157793	-0.127109
C15	C	0.172885	-0.058340	0.015957
H15	H	0.141885	-0.035940	0.077757
H16	H	0.245152	-0.051740	0.024891
H17	H	0.155685	-0.014340	-0.039376
H18	H	0.188352	-0.193740	0.044557
H19	H	0.183152	-0.168940	-0.069709

loop_
_geom_bond_atom_site_label_1
_geom_bond_atom_site_label_2
_geom_bond_distance
_ccdc_geom_bond_type
X1	C1	0.08937	. A
X1	C5	0.08959	. A
C1	C2	0.09004	. A
C1	H1	0.07295	. A
C2	C3	0.09185	. A
C2	C7	0.09550	. A
C3	C4	0.09218	. A
C3	C6	0.10423	. A
C4	C5	0.09103	. A
C4	C8	0.10252	. A
C5	H2	0.07235	. A
C6	O1	0.09655	. A
C6	C10	0.10142	. A
C6	H8	0.07329	. A
C7	N1	0.07732	. A
C8	C15	0.10105	. A
C8	H18	0.07334	. A
C8	H19	0.07342	. A
O1	C12	0.09826	. A
C9	C10	0.10067	. A
C9	H4	0.07302	. A
C9	H5	0.07272	. A
C9	C12	0.10186	. A
C10	H3	0.07303	. A
C10	H6	0.07287	. A
C11	C12	0.10422	. A
C11	C13	0.10278	. A
C11	N3	0.09810	. A
C11	H14	0.07302	. A
H7	C12	0.07326	. A
C13	C14	0.10220	. A
C13	H11	0.07304	. A
C13	H13	0.07316	. A
C14	N2	0.09861	. A
C14	H12	0.07304	. A
N2	N3	0.09582	. A
N2	H10	0.06882	. A
N3	H9	0.06808	. A
C15	H15	0.07268	. A
C15	H16	0.07312	. A
C15	H17	0.07276	. A
