data_tobacco_crystal_2_PM
_symmetry_space_group_name_H-M	'P1'
_cell_length_a	15.000000
_cell_length_b	15.000000
_cell_length_c	15.000000
_cell_angle_alpha	90.000000
_cell_angle_beta	90.000000
_cell_angle_gamma	90.000000
_symmetry_Int_Tables_number 1

loop_
_symmetry_equiv_pos_as_xyz
'x,y,z'

loop_
_atom_site_label
_atom_site_type_symbol
_atom_site_fract_x
_atom_site_fract_y
_atom_site_fract_z
X1	C	0.037976	-0.349986	0.025745
C1	C	-0.044691	-0.313986	0.033012
C2	C	-0.053424	-0.224386	0.028412
C3	C	0.016709	-0.167986	0.017212
C4	C	0.099176	-0.205253	0.015879
C5	C	0.109309	-0.294853	0.018945
C6	C	-0.006424	-0.070519	-0.002455
H1	H	-0.120958	-0.197453	0.029945
C7	C	-0.124824	-0.365186	0.042679
H2	H	0.176109	-0.321386	0.011812
Cl1	Cl	0.196242	-0.143519	0.003279
O1	O	0.061776	-0.002586	0.000345
C8	C	-0.064691	0.072347	0.045279
C9	C	-0.086424	-0.027119	0.045079
C10	C	0.062376	0.165014	-0.030521
H3	H	-0.096558	-0.051719	0.113012
H4	H	-0.043091	0.092281	0.112145
H5	H	-0.121758	0.113414	0.026079
H6	H	-0.147691	-0.040053	0.007279
H7	H	-0.014958	0.064614	-0.088255
C11	C	0.011442	0.076881	-0.020855
H8	H	-0.024224	-0.074586	-0.073721
N1	N	-0.192624	-0.401186	0.052745
O2	O	0.087642	0.212147	0.049412
C12	C	0.002576	0.314014	-0.025188
C13	C	0.004909	0.231814	-0.083321
H9	H	0.037042	0.246014	-0.147388
H10	H	-0.004158	0.375281	-0.063988
H11	H	-0.053691	0.309481	0.021412
H12	H	-0.062491	0.208081	-0.098055
H13	H	0.144909	0.313814	-0.023521
X2	C	0.089976	0.304947	0.024345
H14	H	0.124509	0.151614	-0.066788

loop_
_geom_bond_atom_site_label_1
_geom_bond_atom_site_label_2
_geom_bond_distance
_ccdc_geom_bond_type
X1	C1	0.09046	. A
X1	C5	0.09041	. A
C1	C2	0.09014	. A
C1	C7	0.09558	. A
C2	C3	0.09069	. A
C2	H1	0.07272	. A
C3	C4	0.09051	. A
C3	C6	0.10209	. A
C4	C5	0.09022	. A
C4	Cl1	0.11572	. A
C5	H2	0.07223	. A
C6	O1	0.09630	. A
C6	C9	0.10268	. A
C6	H8	0.07357	. A
C7	N1	0.07742	. A
O1	C11	0.09643	. A
C8	C9	0.10181	. A
C8	H4	0.07304	. A
C8	H5	0.07288	. A
C8	C11	0.10095	. A
C9	H3	0.07296	. A
C9	H6	0.07314	. A
C10	C11	0.10225	. A
C10	O2	0.09617	. A
C10	C13	0.10273	. A
C10	H14	0.07318	. A
H7	C11	0.07342	. A
O2	X2	0.09615	. A
C12	C13	0.10071	. A
C12	H10	0.07283	. A
C12	H11	0.07320	. A
C12	X2	0.10087	. A
C13	H9	0.07307	. A
C13	H12	0.07296	. A
H13	X2	0.07340	. A
