data_tobacco_crystal_2_PM
_symmetry_space_group_name_H-M	'P1'
_cell_length_a	15.000000
_cell_length_b	15.000000
_cell_length_c	15.000000
_cell_angle_alpha	90.000000
_cell_angle_beta	90.000000
_cell_angle_gamma	90.000000
_symmetry_Int_Tables_number 1

loop_
_symmetry_equiv_pos_as_xyz
'x,y,z'

loop_
_atom_site_label
_atom_site_type_symbol
_atom_site_fract_x
_atom_site_fract_y
_atom_site_fract_z
X1	C	0.021022	-0.182574	-0.004311
C1	C	-0.056911	-0.137241	-0.002044
C2	C	-0.059644	-0.046841	0.000022
C3	C	0.018556	-0.000907	-0.002244
C4	C	0.097022	-0.045974	-0.004311
C5	C	0.097889	-0.136041	-0.005378
C6	C	0.020489	0.094493	-0.001244
C7	C	-0.150178	-0.002507	0.006489
H1	H	-0.119644	-0.174107	-0.000778
H2	H	0.162489	-0.168441	-0.006711
C8	C	0.181156	-0.000507	-0.003178
N1	N	0.250489	0.033626	-0.000378
C9	C	0.030822	0.173759	-0.001378
N2	N	0.049622	0.260959	-0.001311
N3	N	-0.020311	0.305759	0.000556
H3	H	-0.196378	-0.028641	-0.043711
H4	H	-0.147911	0.069826	-0.002844
H5	H	-0.178578	-0.014641	0.072756

loop_
_geom_bond_atom_site_label_1
_geom_bond_atom_site_label_2
_geom_bond_distance
_ccdc_geom_bond_type
X1	C1	0.09019	. A
X1	C5	0.08986	. A
C1	C2	0.09046	. A
C1	H1	0.07278	. A
C2	C3	0.09072	. A
C2	C7	0.10101	. A
C3	C4	0.09051	. A
C3	C6	0.09542	. A
C4	C5	0.09008	. A
C4	C8	0.09564	. A
C5	H2	0.07228	. A
C6	C9	0.07994	. A
C7	H3	0.07306	. A
C7	H4	0.07297	. A
C7	H5	0.07311	. A
C8	N1	0.07733	. A
C9	N2	0.08920	. A
N2	N3	0.08307	. A
