data_tobacco_crystal_2_PM
_symmetry_space_group_name_H-M	'P1'
_cell_length_a	15.000000
_cell_length_b	15.000000
_cell_length_c	15.000000
_cell_angle_alpha	90.000000
_cell_angle_beta	90.000000
_cell_angle_gamma	90.000000
_symmetry_Int_Tables_number 1

loop_
_symmetry_equiv_pos_as_xyz
'x,y,z'

loop_
_atom_site_label
_atom_site_type_symbol
_atom_site_fract_x
_atom_site_fract_y
_atom_site_fract_z
X1	C	0.044215	-0.065774	0.008831
C1	C	-0.034318	-0.021574	-0.005036
C2	C	-0.032318	0.069226	-0.012703
X2	C	0.045349	0.115159	-0.004103
C3	C	0.121682	0.070559	0.013497
C4	C	0.120082	-0.018974	0.019297
Cl1	Cl	-0.131118	0.127559	-0.035169
C5	C	-0.121318	-0.073641	-0.011836
F1	F	0.197682	-0.062241	0.035297
Cl2	Cl	0.224082	0.122559	0.031364
H1	H	-0.180785	-0.032774	-0.021303
H2	H	-0.133851	-0.110241	0.050164
H3	H	-0.119385	-0.119841	-0.068303

loop_
_geom_bond_atom_site_label_1
_geom_bond_atom_site_label_2
_geom_bond_distance
_ccdc_geom_bond_type
X1	C1	0.09118	. A
X1	C4	0.08975	. A
C1	C2	0.09115	. A
C1	C5	0.10162	. A
C2	X2	0.09064	. A
C2	Cl1	0.11691	. A
X2	C3	0.09014	. A
C3	C4	0.08974	. A
C3	Cl2	0.11623	. A
C4	F1	0.09028	. A
C5	H1	0.07277	. A
C5	H2	0.07308	. A
C5	H3	0.07298	. A
