data_tobacco_crystal_2_PM
_symmetry_space_group_name_H-M	'P1'
_cell_length_a	15.000000
_cell_length_b	15.000000
_cell_length_c	15.000000
_cell_angle_alpha	90.000000
_cell_angle_beta	90.000000
_cell_angle_gamma	90.000000
_symmetry_Int_Tables_number 1

loop_
_symmetry_equiv_pos_as_xyz
'x,y,z'

loop_
_atom_site_label
_atom_site_type_symbol
_atom_site_fract_x
_atom_site_fract_y
_atom_site_fract_z
X1	C	-0.027068	-0.495044	0.013147
C1	C	-0.111402	-0.463778	0.013347
C2	C	-0.127668	-0.375844	0.004414
C3	C	-0.060402	-0.316711	-0.006120
C4	C	0.024132	-0.348244	-0.001053
C5	C	0.040732	-0.436111	0.008214
C6	C	-0.079802	-0.220178	-0.028653
H1	H	-0.196868	-0.353511	0.002147
H2	H	-0.168068	-0.508711	0.018547
H3	H	0.110265	-0.455978	0.008880
H4	H	0.080865	-0.303711	-0.007653
C7	C	-0.011135	-0.150644	-0.004853
N1	N	-0.068468	-0.073178	-0.002053
N2	N	-0.152802	-0.099178	0.023080
N3	N	-0.160268	-0.182511	0.014614
C8	C	-0.036868	0.012089	0.030814
H5	H	0.017998	-0.160178	0.061480
H6	H	0.040932	-0.143244	-0.055320
H7	H	-0.091802	-0.217844	-0.100920
C9	C	0.057332	0.036289	0.005014
N4	N	0.047798	0.131356	-0.002586
N5	N	-0.038535	0.153689	-0.021520
N6	N	-0.088402	0.087889	-0.005853
N7	N	0.119265	0.179422	-0.030520
H8	H	0.076665	0.010222	-0.060386
H9	H	0.106798	0.017956	0.055214
H10	H	-0.043802	0.012022	0.103747
N8	N	0.104465	0.257156	-0.056320
C10	C	0.065665	0.320289	0.007814
C11	C	0.132865	0.396222	0.023080
C12	C	0.086132	0.477689	-0.014453
N9	N	-0.008135	0.455356	0.003014
N10	N	-0.013868	0.365222	-0.028320
H11	H	-0.069935	0.331889	-0.008453
H12	H	-0.047668	0.499156	-0.031520
H13	H	0.196732	0.384822	-0.010453
H14	H	0.098132	0.483089	-0.086453
H15	H	0.146398	0.403489	0.094680
H16	H	0.049798	0.289289	0.072214

loop_
_geom_bond_atom_site_label_1
_geom_bond_atom_site_label_2
_geom_bond_distance
_ccdc_geom_bond_type
X1	C1	0.08994	. A
X1	C5	0.08997	. A
X1	C12	0.11966	. A
X1	N9	0.05405	. A
X1	H12	0.04953	. A
C1	C2	0.08987	. A
C1	H2	0.07251	. A
C1	H12	0.08631	. A
C2	C3	0.09018	. A
C2	H1	0.07275	. A
C3	C4	0.09037	. A
C3	C6	0.10101	. A
C4	C5	0.08990	. A
C4	H4	0.07243	. A
C5	H3	0.07232	. A
C5	C12	0.10003	. A
C5	N9	0.11914	. A
C5	H12	0.11655	. A
C6	C7	0.10058	. A
C6	N3	0.09882	. A
C6	H7	0.07329	. A
H3	C12	0.07434	. A
C7	N1	0.09642	. A
C7	H5	0.07307	. A
C7	H6	0.07289	. A
N1	N2	0.09176	. A
N1	C8	0.09669	. A
N2	N3	0.08409	. A
C8	C9	0.10062	. A
C8	N6	0.09872	. A
C8	H10	0.07326	. A
C9	N4	0.09585	. A
C9	H8	0.07301	. A
C9	H9	0.07282	. A
N4	N5	0.09116	. A
N4	N7	0.09054	. A
N5	N6	0.08403	. A
N7	N8	0.08323	. A
N8	C10	0.09800	. A
C10	C11	0.10254	. A
C10	N10	0.09824	. A
C10	H16	0.07321	. A
C11	C12	0.10114	. A
C11	H13	0.07303	. A
C11	H15	0.07323	. A
C12	N9	0.09844	. A
C12	H14	0.07319	. A
N9	N10	0.09560	. A
N9	H12	0.06837	. A
N10	H11	0.06819	. A
