data_tobacco_crystal_2_PM
_symmetry_space_group_name_H-M	'P1'
_cell_length_a	15.000000
_cell_length_b	15.000000
_cell_length_c	15.000000
_cell_angle_alpha	90.000000
_cell_angle_beta	90.000000
_cell_angle_gamma	90.000000
_symmetry_Int_Tables_number 1

loop_
_symmetry_equiv_pos_as_xyz
'x,y,z'

loop_
_atom_site_label
_atom_site_type_symbol
_atom_site_fract_x
_atom_site_fract_y
_atom_site_fract_z
X1	C	0.075421	-0.205900	-0.000421
C1	C	-0.000645	-0.170367	-0.032821
C2	C	-0.011645	-0.080100	-0.035021
C3	C	0.055821	-0.025433	-0.007221
C4	C	0.135021	-0.063300	0.015445
C5	C	0.143755	-0.152300	0.020779
C6	C	0.044221	0.074300	0.012979
C7	C	-0.164179	-0.050300	-0.004888
N1	N	-0.070779	-0.226967	-0.064421
H1	H	0.206688	-0.179233	0.044979
O1	O	0.209021	-0.011967	0.036712
O2	O	0.107421	0.134300	-0.028421
C8	C	-0.020979	0.218767	0.008379
C9	C	-0.044445	0.121433	0.000979
H2	H	-0.092912	0.102233	0.051845
H3	H	-0.053579	0.255967	-0.045421
H4	H	-0.044045	0.247700	0.071379
H5	H	-0.072512	0.110433	-0.065355
H6	H	0.108421	0.227567	0.070245
C10	C	0.080488	0.221300	0.002779
H7	H	0.059021	0.078433	0.084979
H8	H	-0.082979	-0.281233	-0.025021
H9	H	-0.127379	-0.196367	-0.084621
H10	H	0.205888	0.046767	0.008245
H11	H	-0.142112	-0.048367	0.064645
H12	H	-0.207712	0.006967	-0.017155
H13	H	-0.203779	-0.110100	-0.017221
O3	O	-0.091512	-0.044233	-0.066355

loop_
_geom_bond_atom_site_label_1
_geom_bond_atom_site_label_2
_geom_bond_distance
_ccdc_geom_bond_type
X1	C1	0.08999	. A
X1	C5	0.08940	. A
C1	C2	0.09096	. A
C1	N1	0.09550	. A
C2	C3	0.09118	. A
C2	O3	0.09299	. A
C3	C4	0.09067	. A
C3	C6	0.10242	. A
C4	C5	0.08959	. A
C4	O1	0.09254	. A
C5	H1	0.07261	. A
C6	O2	0.09648	. A
C6	C9	0.10113	. A
C6	H7	0.07362	. A
C7	H11	0.07298	. A
C7	H12	0.07297	. A
C7	H13	0.07278	. A
C7	O3	0.09537	. A
N1	H8	0.06816	. A
N1	H9	0.06744	. A
O1	H10	0.06534	. A
O2	C10	0.09627	. A
C8	C9	0.10040	. A
C8	H3	0.07308	. A
C8	H4	0.07306	. A
C8	C10	0.10165	. A
C9	H2	0.07284	. A
C9	H5	0.07286	. A
H6	C10	0.07329	. A
