data_tobacco_crystal_2_PM
_symmetry_space_group_name_H-M	'P1'
_cell_length_a	15.000000
_cell_length_b	15.000000
_cell_length_c	15.000000
_cell_angle_alpha	90.000000
_cell_angle_beta	90.000000
_cell_angle_gamma	90.000000
_symmetry_Int_Tables_number 1

loop_
_symmetry_equiv_pos_as_xyz
'x,y,z'

loop_
_atom_site_label
_atom_site_type_symbol
_atom_site_fract_x
_atom_site_fract_y
_atom_site_fract_z
X1	C	-0.022207	-0.435486	0.000018
C1	C	-0.097207	-0.385953	0.007818
C2	C	-0.093674	-0.296220	0.008351
C3	C	-0.014474	-0.254553	-0.000115
C4	C	0.060126	-0.304153	-0.008649
C5	C	0.057059	-0.393153	-0.008915
C6	C	-0.001874	-0.159086	0.001151
H1	H	-0.155741	-0.259620	0.014751
H2	H	-0.162074	-0.418286	0.014551
N1	N	0.140993	-0.440886	-0.017515
H3	H	0.123993	-0.270553	-0.015182
C7	C	-0.062941	-0.095086	-0.009715
C8	C	-0.041407	-0.000620	-0.011982
H4	H	-0.133007	-0.112486	-0.016182
H5	H	0.067259	-0.139553	0.010151
C9	C	-0.109607	0.057647	-0.013115
C10	C	-0.094074	0.145647	-0.009782
C11	C	-0.010141	0.178780	-0.005049
C12	C	0.058459	0.120180	-0.009382
C13	C	0.042859	0.032580	-0.012782
C14	C	0.004659	0.275914	0.014618
H6	H	-0.152141	0.188314	-0.007115
H7	H	-0.178474	0.034914	-0.013849
H8	H	0.100726	-0.010753	-0.013649
H9	H	0.127326	0.143447	-0.006382
C15	C	0.088193	0.329180	-0.010649
C16	C	0.059593	0.421714	0.022551
N2	N	-0.040007	0.419647	0.022018
N3	N	-0.063541	0.337047	-0.019382
H10	H	-0.125341	0.317514	0.000751
H11	H	-0.062074	0.473714	-0.014115
H12	H	0.146926	0.304980	0.025685
H13	H	0.080459	0.428114	0.092285
H14	H	0.103126	0.326580	-0.082249
H15	H	0.001259	0.276847	0.088218
H16	H	0.181793	-0.403620	-0.058582
H17	H	0.175193	-0.432686	0.041418

loop_
_geom_bond_atom_site_label_1
_geom_bond_atom_site_label_2
_geom_bond_distance
_ccdc_geom_bond_type
X1	C1	0.09022	. A
X1	C5	0.09031	. A
X1	H11	0.10017	. A
C1	C2	0.08980	. A
C1	H2	0.07279	. A
C2	C3	0.08989	. A
C2	H1	0.07234	. A
C3	C4	0.08999	. A
C3	C6	0.09630	. A
C4	C5	0.08905	. A
C4	H3	0.07246	. A
C5	N1	0.09694	. A
C6	C7	0.08912	. A
C6	H5	0.07240	. A
N1	H16	0.06885	. A
N1	H17	0.06863	. A
C7	C8	0.09692	. A
C7	H4	0.07248	. A
C8	C9	0.08971	. A
C8	C13	0.09057	. A
C9	C10	0.08942	. A
C9	H7	0.07253	. A
C10	C11	0.09036	. A
C10	H6	0.07211	. A
C11	C12	0.09033	. A
C11	C14	0.10020	. A
C12	C13	0.08904	. A
C12	H9	0.07275	. A
C13	H8	0.07230	. A
C14	C15	0.10224	. A
C14	N3	0.09770	. A
C14	H15	0.07368	. A
C15	C16	0.10238	. A
C15	H12	0.07318	. A
C15	H14	0.07319	. A
C16	N2	0.09962	. A
C16	H13	0.07307	. A
N2	N3	0.09534	. A
N2	H11	0.06867	. A
N3	H10	0.06787	. A
