data_tobacco_crystal_2_PM
_symmetry_space_group_name_H-M	'P1'
_cell_length_a	15.000000
_cell_length_b	15.000000
_cell_length_c	15.000000
_cell_angle_alpha	90.000000
_cell_angle_beta	90.000000
_cell_angle_gamma	90.000000
_symmetry_Int_Tables_number 1

loop_
_symmetry_equiv_pos_as_xyz
'x,y,z'

loop_
_atom_site_label
_atom_site_type_symbol
_atom_site_fract_x
_atom_site_fract_y
_atom_site_fract_z
X1	C	0.054285	-0.197875	-0.017155
C1	C	-0.026248	-0.171075	0.014445
C2	C	-0.038315	-0.082208	0.033179
C3	C	0.027285	-0.020075	0.016845
C4	C	0.106819	-0.051275	-0.014755
C5	C	0.119019	-0.138008	-0.031421
C6	C	0.012885	0.080992	0.034512
Br1	Br	-0.148248	-0.045941	0.087112
C7	C	-0.099315	-0.240741	0.026779
H1	H	0.183552	-0.157741	-0.058088
O1	O	0.180085	0.002525	-0.030421
H2	H	0.169019	0.064325	-0.012488
O2	O	0.090419	0.133792	0.009579
C8	C	-0.036848	0.222459	-0.016888
C9	C	-0.063981	0.125859	-0.015488
H3	H	-0.128781	0.119525	0.016779
H4	H	-0.052581	0.253725	0.047379
H5	H	-0.070581	0.260859	-0.068955
H6	H	-0.069515	0.100192	-0.083688
H7	H	0.079285	0.212392	-0.101755
C10	C	0.062685	0.216459	-0.030621
H8	H	0.005752	0.091259	0.106645
H9	H	-0.119315	-0.267675	-0.038221
H10	H	-0.076381	-0.295075	0.069779
H11	H	-0.160981	-0.216675	0.056912

loop_
_geom_bond_atom_site_label_1
_geom_bond_atom_site_label_2
_geom_bond_distance
_ccdc_geom_bond_type
X1	C1	0.09057	. A
X1	C5	0.08932	. A
C1	C2	0.09162	. A
C1	C7	0.10171	. A
C2	C3	0.09182	. A
C3	C4	0.09109	. A
C3	C6	0.10360	. A
C4	C5	0.08916	. A
C4	O1	0.09224	. A
C5	H1	0.07256	. A
C6	O2	0.09706	. A
C6	C9	0.10209	. A
C6	H8	0.07321	. A
C7	H9	0.07315	. A
C7	H10	0.07299	. A
C7	H11	0.07273	. A
O1	H2	0.06529	. A
O2	C10	0.09602	. A
C8	C9	0.10035	. A
C8	H4	0.07318	. A
C8	H5	0.07296	. A
C8	C10	0.10066	. A
C9	H3	0.07267	. A
C9	H6	0.07308	. A
H7	C10	0.07316	. A
