data_tobacco_crystal_2_PM
_symmetry_space_group_name_H-M	'P1'
_cell_length_a	15.000000
_cell_length_b	15.000000
_cell_length_c	15.000000
_cell_angle_alpha	90.000000
_cell_angle_beta	90.000000
_cell_angle_gamma	90.000000
_symmetry_Int_Tables_number 1

loop_
_symmetry_equiv_pos_as_xyz
'x,y,z'

loop_
_atom_site_label
_atom_site_type_symbol
_atom_site_fract_x
_atom_site_fract_y
_atom_site_fract_z
X1	C	0.016180	-0.227568	0.022272
C1	C	-0.060087	-0.181501	0.008272
C2	C	-0.058220	-0.092035	-0.001594
C3	C	0.019113	-0.043901	0.003139
C4	C	0.094980	-0.091768	0.017739
C5	C	0.093046	-0.181368	0.027539
C6	C	0.014246	0.057165	-0.013328
O1	O	-0.140354	-0.052235	-0.020861
O2	O	-0.141620	-0.224501	0.001339
H1	H	0.155580	-0.215901	0.039806
Cl1	Cl	0.200846	-0.044968	0.021672
H2	H	-0.134954	-0.004968	-0.065061
C7	C	0.088446	0.124965	0.004806
C8	C	0.041913	0.212765	-0.018128
N1	N	-0.054020	0.194832	-0.000061
N2	N	-0.055954	0.105432	0.036339
H3	H	-0.117154	0.075832	0.032072
H4	H	-0.077354	0.242165	0.043739
H5	H	0.146646	0.116232	-0.038128
H6	H	0.049380	0.226832	-0.089528
H7	H	0.110113	0.123699	0.074806
H8	H	-0.000620	0.061699	-0.085261
H9	H	-0.190154	-0.180901	-0.001594

loop_
_geom_bond_atom_site_label_1
_geom_bond_atom_site_label_2
_geom_bond_distance
_ccdc_geom_bond_type
X1	C1	0.09019	. A
X1	C5	0.08984	. A
C1	C2	0.09003	. A
C1	O2	0.09244	. A
C2	C3	0.09121	. A
C2	O1	0.09328	. A
C3	C4	0.09089	. A
C3	C6	0.10251	. A
C4	C5	0.09016	. A
C4	Cl1	0.11582	. A
C5	H1	0.07248	. A
C6	C7	0.10213	. A
C6	N2	0.09861	. A
C6	H8	0.07359	. A
O1	H2	0.06494	. A
O2	H9	0.06531	. A
C7	C8	0.10198	. A
C7	H5	0.07285	. A
C7	H7	0.07329	. A
C8	N1	0.09925	. A
C8	H6	0.07315	. A
N1	N2	0.09655	. A
N1	H4	0.06858	. A
N2	H3	0.06812	. A
