data_tobacco_crystal_2_PM
_symmetry_space_group_name_H-M	'P1'
_cell_length_a	15.000000
_cell_length_b	15.000000
_cell_length_c	15.000000
_cell_angle_alpha	90.000000
_cell_angle_beta	90.000000
_cell_angle_gamma	90.000000
_symmetry_Int_Tables_number 1

loop_
_symmetry_equiv_pos_as_xyz
'x,y,z'

loop_
_atom_site_label
_atom_site_type_symbol
_atom_site_fract_x
_atom_site_fract_y
_atom_site_fract_z
X1	C	-0.029265	-0.362688	0.013196
C1	C	-0.105465	-0.315155	0.010996
C2	C	-0.102865	-0.225622	0.003929
C3	C	-0.024931	-0.179422	-0.001538
C4	C	0.051002	-0.228088	0.004729
C5	C	0.048535	-0.317888	0.011329
C6	C	-0.025931	-0.078822	-0.022338
H1	H	-0.166931	-0.192155	-0.000604
H2	H	-0.169931	-0.348355	0.012596
F1	F	0.126669	-0.363022	0.013729
H3	H	0.115869	-0.195955	0.000729
C7	C	0.046535	-0.010688	0.004729
C8	C	0.003535	0.079578	-0.024204
N1	N	-0.093198	0.058045	-0.025404
N2	N	-0.103198	-0.029488	0.012262
C9	C	0.021135	0.164912	0.032529
H4	H	-0.161131	-0.057422	-0.009804
H5	H	-0.127998	0.105978	0.009196
H6	H	0.109402	-0.022688	-0.030404
H7	H	0.022602	0.092778	-0.093604
H8	H	0.059335	-0.012488	0.076729
H9	H	-0.029331	-0.077755	-0.095738
C10	C	0.096469	0.226845	0.003862
N3	N	0.048069	0.306312	-0.023338
N4	N	-0.040531	0.299778	-0.005804
N5	N	-0.057931	0.224112	0.024529
C11	C	0.083535	0.396712	-0.010738
H10	H	0.141202	0.240645	0.059929
H11	H	0.135802	0.200378	-0.051471
H12	H	0.027935	0.146912	0.102929
C12	C	0.101002	0.474712	-0.002938

loop_
_geom_bond_atom_site_label_1
_geom_bond_atom_site_label_2
_geom_bond_distance
_ccdc_geom_bond_type
X1	C1	0.08984	. A
X1	C5	0.08980	. A
C1	C2	0.08985	. A
C1	H2	0.07253	. A
C2	C3	0.09076	. A
C2	H1	0.07242	. A
C3	C4	0.09041	. A
C3	C6	0.10273	. A
C4	C5	0.09008	. A
C4	H3	0.07250	. A
C5	F1	0.09026	. A
C6	C7	0.10308	. A
C6	N2	0.09799	. A
C6	H9	0.07349	. A
C7	C8	0.10409	. A
C7	H6	0.07301	. A
C7	H8	0.07315	. A
C8	N1	0.09911	. A
C8	C9	0.10397	. A
C8	H7	0.07317	. A
N1	N2	0.09582	. A
N1	H5	0.06860	. A
N2	H4	0.06800	. A
C9	C10	0.10165	. A
C9	N5	0.09910	. A
C9	H12	0.07298	. A
C10	N3	0.09694	. A
C10	H10	0.07304	. A
C10	H11	0.07287	. A
N3	N4	0.09055	. A
N3	C11	0.09792	. A
N4	N5	0.08336	. A
C11	C12	0.08031	. A
