data_tobacco_crystal_2_PM
_symmetry_space_group_name_H-M	'P1'
_cell_length_a	15.000000
_cell_length_b	15.000000
_cell_length_c	15.000000
_cell_angle_alpha	90.000000
_cell_angle_beta	90.000000
_cell_angle_gamma	90.000000
_symmetry_Int_Tables_number 1

loop_
_symmetry_equiv_pos_as_xyz
'x,y,z'

loop_
_atom_site_label
_atom_site_type_symbol
_atom_site_fract_x
_atom_site_fract_y
_atom_site_fract_z
X1	C	0.010292	-0.253222	-0.003942
C1	C	-0.067108	-0.204889	-0.006075
C2	C	-0.064375	-0.114489	-0.006942
C3	C	0.012958	-0.068689	-0.005408
C4	C	0.088758	-0.116756	-0.003608
C5	C	0.088292	-0.206756	-0.002742
C6	C	0.019358	0.028511	0.000192
H1	H	-0.127508	-0.078489	-0.007542
C7	C	-0.155375	-0.242356	-0.005342
C8	C	0.173225	-0.248089	0.001258
H2	H	0.152625	-0.081956	-0.001542
N1	N	0.238158	-0.289889	0.004258
N2	N	-0.229442	-0.264756	-0.003675
C9	C	-0.048175	0.087311	0.000525
C10	C	-0.039708	0.184578	0.022792
H3	H	-0.116642	0.065378	-0.008942
H4	H	0.086425	0.054111	0.011792
C11	C	0.044758	0.234711	0.000925
N3	N	0.006692	0.321511	-0.013942
N4	N	-0.081508	0.316844	-0.035142
N5	N	-0.108042	0.237711	-0.024875
H5	H	0.093892	0.235311	0.054858
H6	H	0.076492	0.212978	-0.061208
H7	H	-0.054042	0.191378	0.094325

loop_
_geom_bond_atom_site_label_1
_geom_bond_atom_site_label_2
_geom_bond_distance
_ccdc_geom_bond_type
X1	C1	0.09128	. A
X1	C5	0.09080	. A
C1	C2	0.09045	. A
C1	C7	0.09589	. A
C2	C3	0.08989	. A
C2	H1	0.07268	. A
C3	C4	0.08977	. A
C3	C6	0.09757	. A
C4	C5	0.09001	. A
C4	H2	0.07276	. A
C5	C8	0.09454	. A
C6	C9	0.08954	. A
C6	H4	0.07272	. A
C7	N2	0.07740	. A
C8	N1	0.07728	. A
C9	C10	0.10014	. A
C9	H3	0.07251	. A
C10	C11	0.10063	. A
C10	N5	0.09882	. A
C10	H7	0.07327	. A
C11	N3	0.09594	. A
C11	H5	0.07296	. A
C11	H6	0.07307	. A
N3	N4	0.09083	. A
N4	N5	0.08409	. A
