data_tobacco_crystal_2_PM
_symmetry_space_group_name_H-M	'P1'
_cell_length_a	15.000000
_cell_length_b	15.000000
_cell_length_c	15.000000
_cell_angle_alpha	90.000000
_cell_angle_beta	90.000000
_cell_angle_gamma	90.000000
_symmetry_Int_Tables_number 1

loop_
_symmetry_equiv_pos_as_xyz
'x,y,z'

loop_
_atom_site_label
_atom_site_type_symbol
_atom_site_fract_x
_atom_site_fract_y
_atom_site_fract_z
X1	C	0.040733	-0.145876	-0.003775
C1	C	-0.036000	-0.098943	-0.004041
C2	C	-0.038667	-0.009010	-0.007375
C3	C	0.039933	0.036857	-0.010975
C4	C	0.118467	-0.009010	-0.004908
C5	C	0.118400	-0.099943	-0.003308
N1	N	0.042267	0.128190	-0.024775
C6	C	-0.128133	0.040190	-0.005375
H1	H	-0.098533	-0.135610	-0.002108
Cl1	Cl	0.221000	-0.155676	-0.000375
C7	C	0.205733	0.042257	0.003359
C8	C	-0.212867	-0.015810	0.003559
H2	H	-0.216133	-0.046876	0.069625
H3	H	-0.216867	-0.068010	-0.047241
H4	H	-0.271800	0.026457	-0.003908
H5	H	-0.128133	0.084390	0.052892
H6	H	-0.134400	0.081924	-0.065041
H7	H	0.199467	0.113990	-0.007975
H8	H	0.256667	0.018724	-0.043241
H9	H	0.230600	0.034457	0.071825
N2	N	0.008267	0.177324	0.033159

loop_
_geom_bond_atom_site_label_1
_geom_bond_atom_site_label_2
_geom_bond_distance
_ccdc_geom_bond_type
X1	C1	0.08995	. A
X1	C5	0.09023	. A
C1	C2	0.09003	. A
C1	H1	0.07252	. A
C2	C3	0.09108	. A
C2	C6	0.10212	. A
C3	C4	0.09115	. A
C3	N1	0.09240	. A
C4	C5	0.09095	. A
C4	C7	0.10155	. A
C5	Cl1	0.11680	. A
N1	N2	0.08322	. A
C6	C8	0.10196	. A
C6	H5	0.07313	. A
C6	H6	0.07308	. A
C7	H7	0.07289	. A
C7	H8	0.07294	. A
C7	H9	0.07326	. A
C8	H2	0.07308	. A
C8	H3	0.07295	. A
C8	H4	0.07291	. A
