data_tobacco_crystal_2_PM
_symmetry_space_group_name_H-M	'P1'
_cell_length_a	15.000000
_cell_length_b	15.000000
_cell_length_c	15.000000
_cell_angle_alpha	90.000000
_cell_angle_beta	90.000000
_cell_angle_gamma	90.000000
_symmetry_Int_Tables_number 1

loop_
_symmetry_equiv_pos_as_xyz
'x,y,z'

loop_
_atom_site_label
_atom_site_type_symbol
_atom_site_fract_x
_atom_site_fract_y
_atom_site_fract_z
X1	C	-0.006394	-0.538224	0.013958
C1	C	-0.087594	-0.499558	0.008158
C2	C	-0.095461	-0.410424	0.001024
C3	C	-0.021527	-0.358491	-0.002109
C4	C	0.059006	-0.397024	0.009091
C5	C	0.066739	-0.485624	0.016891
C6	C	-0.027194	-0.261424	-0.027042
H1	H	-0.161794	-0.382024	-0.007109
H2	H	-0.147994	-0.539824	0.006491
H3	H	0.133873	-0.511358	0.022958
H4	H	0.119139	-0.356224	0.007891
O1	O	0.047606	-0.208291	0.002424
C7	C	-0.071461	-0.110624	-0.015442
C8	C	-0.108261	-0.204491	-0.005042
C9	C	0.080939	-0.049424	-0.009376
H5	H	-0.163727	-0.216891	-0.050842
H6	H	-0.105461	-0.072024	-0.067176
H7	H	-0.080461	-0.074824	0.047824
H8	H	-0.132261	-0.214891	0.063158
H9	H	0.036339	-0.132091	-0.110442
C10	C	0.027339	-0.124491	-0.038309
H10	H	-0.022261	-0.263424	-0.100309
C11	C	0.093473	0.027242	0.009224
C12	C	0.062873	0.114042	0.038624
O2	O	0.098606	0.191242	-0.006176
C13	C	-0.053994	0.219642	0.013424
C14	C	-0.037527	0.120976	0.020624
C15	C	0.053606	0.354376	-0.001776
H11	H	-0.055861	0.089976	-0.043242
H12	H	-0.082127	0.235109	-0.052309
H13	H	-0.100661	0.242976	0.064424
H14	H	-0.077327	0.088776	0.072491
H15	H	0.051006	0.261976	0.098891
C16	C	0.038806	0.259109	0.026491
H16	H	0.076873	0.120776	0.110091
C17	C	-0.017461	0.409442	-0.010109
C18	C	-0.006861	0.497776	-0.018042
C19	C	0.075739	0.533042	-0.018576
C20	C	0.147539	0.478642	-0.016242
C21	C	0.136206	0.389642	-0.008576
H17	H	-0.065927	0.539509	-0.020109
H18	H	-0.085394	0.384642	-0.005509
H19	H	0.194673	0.346709	-0.003176
H20	H	0.214606	0.506042	-0.017109

loop_
_geom_bond_atom_site_label_1
_geom_bond_atom_site_label_2
_geom_bond_distance
_ccdc_geom_bond_type
X1	C1	0.09012	. A
X1	C5	0.09013	. A
X1	C15	0.12403	. A
X1	C17	0.05866	. A
X1	C18	0.04817	. A
X1	C19	0.11350	. A
X1	H17	0.10367	. A
X1	H18	0.11211	. A
C1	C2	0.08976	. A
C1	H2	0.07261	. A
C1	C17	0.11633	. A
C1	C18	0.08492	. A
C1	H17	0.05286	. A
C1	H18	0.11662	. A
C2	C3	0.09040	. A
C2	H1	0.07261	. A
C2	H17	0.06185	. A
C3	C4	0.08998	. A
C3	C6	0.10038	. A
C3	H17	0.11269	. A
C4	C5	0.08928	. A
C4	H4	0.07268	. A
C4	C19	0.07705	. A
C5	H3	0.07215	. A
C5	C18	0.08314	. A
C5	C19	0.04108	. A
C5	C20	0.09436	. A
C6	O1	0.09637	. A
C6	C8	0.10148	. A
C6	H10	0.07346	. A
H3	C20	0.04270	. A
O1	C10	0.09535	. A
C7	C8	0.10136	. A
C7	H6	0.07295	. A
C7	H7	0.07325	. A
C7	C10	0.10236	. A
C8	H5	0.07299	. A
C8	H8	0.07304	. A
C9	C10	0.09667	. A
C9	C11	0.07988	. A
H9	C10	0.07309	. A
C11	C12	0.09662	. A
C12	O2	0.09614	. A
C12	C14	0.10224	. A
C12	H16	0.07314	. A
O2	C16	0.09617	. A
C13	C14	0.10029	. A
C13	H12	0.07315	. A
C13	H13	0.07296	. A
C13	C16	0.10169	. A
C14	H11	0.07332	. A
C14	H14	0.07288	. A
C15	C16	0.10047	. A
C15	C17	0.09029	. A
C15	C21	0.09007	. A
H15	C16	0.07348	. A
C17	C18	0.08932	. A
C17	H18	0.07246	. A
C18	C19	0.08982	. A
C18	H17	0.07235	. A
C19	C20	0.09011	. A
C20	C21	0.09005	. A
C20	H20	0.07245	. A
C21	H19	0.07274	. A
