data_tobacco_crystal_2_PM
_symmetry_space_group_name_H-M	'P1'
_cell_length_a	15.000000
_cell_length_b	15.000000
_cell_length_c	15.000000
_cell_angle_alpha	90.000000
_cell_angle_beta	90.000000
_cell_angle_gamma	90.000000
_symmetry_Int_Tables_number 1

loop_
_symmetry_equiv_pos_as_xyz
'x,y,z'

loop_
_atom_site_label
_atom_site_type_symbol
_atom_site_fract_x
_atom_site_fract_y
_atom_site_fract_z
X1	C	0.002535	-0.423196	0.015333
C1	C	-0.074465	-0.377396	0.009067
C2	C	-0.075998	-0.287863	0.000467
C3	C	0.001269	-0.239730	-0.000933
C4	C	0.078469	-0.286263	0.007533
C5	C	0.079335	-0.375996	0.015133
C6	C	0.000269	-0.138263	-0.018867
O1	O	-0.157798	-0.246196	-0.010133
H1	H	-0.137598	-0.413596	0.009133
H2	H	0.144069	-0.408396	0.019533
H3	H	0.142135	-0.251463	0.005600
C7	C	0.075202	-0.071596	0.005267
C8	C	0.032269	0.016270	-0.026267
N1	N	-0.063998	0.003337	-0.007733
N2	N	-0.074131	-0.088930	0.021933
C9	C	0.061335	0.105004	0.007133
H4	H	-0.132665	-0.117196	0.000333
H5	H	-0.082731	0.045404	0.042600
H6	H	0.137069	-0.085863	-0.030733
H7	H	0.039669	0.018537	-0.099067
H8	H	0.089669	-0.071596	0.077067
H9	H	-0.007931	-0.135263	-0.091867
C10	C	0.066535	0.183804	0.023800
C11	C	0.052869	0.280537	0.042200
H10	H	-0.207465	-0.287863	-0.007933
O2	O	0.116802	0.338470	-0.000800
C12	C	-0.024931	0.410337	-0.001867
C13	C	-0.037331	0.311337	0.007333
H11	H	-0.092531	0.293737	0.051533
H12	H	-0.037598	0.443337	0.062200
H13	H	-0.069998	0.440337	-0.050933
H14	H	-0.051198	0.283004	-0.058667
H15	H	0.078469	0.420870	-0.102133
C14	C	0.072402	0.419004	-0.029267
H16	H	0.058002	0.293337	0.114000

loop_
_geom_bond_atom_site_label_1
_geom_bond_atom_site_label_2
_geom_bond_distance
_ccdc_geom_bond_type
X1	C1	0.08981	. A
X1	C5	0.09014	. A
C1	C2	0.08996	. A
C1	H1	0.07278	. A
C2	C3	0.09104	. A
C2	O1	0.09241	. A
C3	C4	0.09054	. A
C3	C6	0.10304	. A
C4	C5	0.09006	. A
C4	H3	0.07258	. A
C5	H2	0.07252	. A
C6	C7	0.10316	. A
C6	N2	0.09815	. A
C6	H9	0.07352	. A
O1	H10	0.06487	. A
C7	C8	0.10275	. A
C7	H6	0.07299	. A
C7	H8	0.07324	. A
C8	N1	0.09888	. A
C8	C9	0.09917	. A
C8	H7	0.07321	. A
N1	N2	0.09745	. A
N1	H5	0.06822	. A
N2	H4	0.06850	. A
C9	C10	0.08071	. A
C10	C11	0.09941	. A
C11	O2	0.09640	. A
C11	C13	0.10149	. A
C11	H16	0.07311	. A
O2	C14	0.09627	. A
C12	C13	0.10020	. A
C12	H12	0.07317	. A
C12	H13	0.07307	. A
C12	C14	0.10149	. A
C13	H11	0.07287	. A
C13	H14	0.07315	. A
H15	C14	0.07314	. A
