data_tobacco_crystal_2_PM
_symmetry_space_group_name_H-M	'P1'
_cell_length_a	15.000000
_cell_length_b	15.000000
_cell_length_c	15.000000
_cell_angle_alpha	90.000000
_cell_angle_beta	90.000000
_cell_angle_gamma	90.000000
_symmetry_Int_Tables_number 1

loop_
_symmetry_equiv_pos_as_xyz
'x,y,z'

loop_
_atom_site_label
_atom_site_type_symbol
_atom_site_fract_x
_atom_site_fract_y
_atom_site_fract_z
X1	C	-0.057126	-0.222398	-0.016620
C1	C	-0.127193	-0.171731	0.007380
C2	C	-0.119993	-0.082531	0.014580
C3	C	-0.042059	-0.039331	-0.004753
C4	C	0.027341	-0.091464	-0.030686
C5	C	0.021607	-0.181798	-0.034420
C6	C	-0.032859	0.061736	0.010447
Cl1	Cl	-0.214726	-0.028464	0.054980
H1	H	-0.190659	-0.203264	0.023780
C7	C	0.161274	-0.231464	0.014647
H2	H	0.091141	-0.060731	-0.046286
C8	C	0.046007	0.121469	-0.018620
C9	C	0.011341	0.212002	0.014514
N1	N	-0.086126	0.206936	0.001380
N2	N	-0.104659	0.116536	-0.028286
C10	C	0.045207	0.297202	-0.019220
H3	H	-0.164859	0.095202	-0.003886
H4	H	-0.105726	0.252136	-0.045953
H5	H	0.108541	0.102869	0.014180
H6	H	0.022807	0.213602	0.086980
H7	H	0.056607	0.120269	-0.091086
H8	H	-0.035993	0.067136	0.083780
C11	C	0.056941	0.376402	-0.028420
H9	H	0.172007	-0.300264	0.036714
H10	H	0.223807	-0.205598	-0.012286
H11	H	0.141207	-0.191864	0.072647
O1	O	0.096141	-0.232598	-0.055486

loop_
_geom_bond_atom_site_label_1
_geom_bond_atom_site_label_2
_geom_bond_distance
_ccdc_geom_bond_type
X1	C1	0.08974	. A
X1	C5	0.09036	. A
C1	C2	0.08978	. A
C1	H1	0.07274	. A
C2	C3	0.09118	. A
C2	Cl1	0.11632	. A
C3	C4	0.09059	. A
C3	C6	0.10262	. A
C4	C5	0.09059	. A
C4	H2	0.07251	. A
C5	O1	0.09263	. A
C6	C8	0.10312	. A
C6	N2	0.09828	. A
C6	H8	0.07360	. A
C7	H9	0.07305	. A
C7	H10	0.07283	. A
C7	H11	0.07304	. A
C7	O1	0.09572	. A
C8	C9	0.10245	. A
C8	H5	0.07302	. A
C8	H7	0.07325	. A
C9	N1	0.09848	. A
C9	C10	0.09769	. A
C9	H6	0.07339	. A
N1	N2	0.09693	. A
N1	H4	0.06832	. A
N2	H3	0.06837	. A
C10	C11	0.08059	. A
