data_tobacco_crystal_2_PM
_symmetry_space_group_name_H-M	'P1'
_cell_length_a	15.000000
_cell_length_b	15.000000
_cell_length_c	15.000000
_cell_angle_alpha	90.000000
_cell_angle_beta	90.000000
_cell_angle_gamma	90.000000
_symmetry_Int_Tables_number 1

loop_
_symmetry_equiv_pos_as_xyz
'x,y,z'

loop_
_atom_site_label
_atom_site_type_symbol
_atom_site_fract_x
_atom_site_fract_y
_atom_site_fract_z
X1	C	-0.010764	-0.321152	-0.000966
C1	C	-0.090430	-0.279352	-0.008366
C2	C	-0.097430	-0.190419	-0.015232
C3	C	-0.023564	-0.137952	-0.014832
C4	C	0.056170	-0.179686	-0.008432
C5	C	0.064436	-0.270019	-0.001432
C6	C	-0.036630	-0.036486	-0.020499
O1	O	-0.181764	-0.152552	-0.021766
H1	H	-0.152030	-0.317819	-0.008232
C7	C	0.157836	-0.306352	0.007968
H2	H	0.116236	-0.138952	-0.007832
H3	H	-0.229164	-0.195686	-0.011899
H4	H	0.177436	-0.342352	-0.052432
H5	H	0.207570	-0.253686	0.017301
H6	H	0.163236	-0.350086	0.066168
C8	C	0.038370	0.034514	-0.014966
C9	C	-0.003430	0.113381	0.037834
N1	N	-0.098364	0.088114	0.045034
N2	N	-0.095764	-0.006752	0.052368
C10	C	0.009970	0.211514	0.010634
H7	H	-0.156964	-0.036086	0.043701
H8	H	-0.129364	0.105914	-0.013232
H9	H	0.096836	0.009581	0.021234
H10	H	0.023770	0.109381	0.105968
H11	H	0.059503	0.054648	-0.081966
H12	H	-0.070364	-0.024419	-0.084632
C11	C	-0.060230	0.267714	-0.001166
C12	C	-0.049630	0.355848	-0.013966
C13	C	0.032770	0.391314	-0.015099
C14	C	0.103970	0.336648	-0.007032
C15	C	0.092570	0.248114	0.005434
H13	H	-0.108564	0.397581	-0.020099
H14	H	-0.128630	0.244248	0.003368
H15	H	0.151370	0.206914	0.015101
H16	H	0.171036	0.364381	-0.008032

loop_
_geom_bond_atom_site_label_1
_geom_bond_atom_site_label_2
_geom_bond_distance
_ccdc_geom_bond_type
X1	C1	0.09027	. A
X1	C5	0.09094	. A
C1	C2	0.08947	. A
C1	H1	0.07262	. A
C2	C3	0.09060	. A
C2	O1	0.09268	. A
C3	C4	0.09022	. A
C3	C6	0.10246	. A
C4	C5	0.09098	. A
C4	H2	0.07258	. A
C5	C7	0.10066	. A
C6	C8	0.10342	. A
C6	N2	0.09844	. A
C6	H12	0.07346	. A
O1	H3	0.06484	. A
C7	H4	0.07300	. A
C7	H5	0.07304	. A
C7	H6	0.07300	. A
C8	C9	0.10371	. A
C8	H9	0.07315	. A
C8	H11	0.07308	. A
C9	N1	0.09850	. A
C9	C10	0.10271	. A
C9	H10	0.07347	. A
N1	N2	0.09519	. A
N1	H8	0.06836	. A
N2	H7	0.06842	. A
C10	C11	0.09070	. A
C10	C15	0.09050	. A
C11	C12	0.08969	. A
C11	H14	0.07246	. A
C12	C13	0.08972	. A
C12	H13	0.07247	. A
C13	C14	0.09013	. A
C14	C15	0.09013	. A
C14	H16	0.07258	. A
C15	H15	0.07245	. A
