data_tobacco_crystal_2_PM
_symmetry_space_group_name_H-M	'P1'
_cell_length_a	15.000000
_cell_length_b	15.000000
_cell_length_c	15.000000
_cell_angle_alpha	90.000000
_cell_angle_beta	90.000000
_cell_angle_gamma	90.000000
_symmetry_Int_Tables_number 1

loop_
_symmetry_equiv_pos_as_xyz
'x,y,z'

loop_
_atom_site_label
_atom_site_type_symbol
_atom_site_fract_x
_atom_site_fract_y
_atom_site_fract_z
X1	C	0.031800	-0.318992	-0.004061
C1	C	-0.045733	-0.273659	0.001006
C2	C	-0.047733	-0.184659	-0.011727
C3	C	0.029733	-0.138059	-0.024727
C4	C	0.104667	-0.185659	-0.042194
C5	C	0.105133	-0.274859	-0.030927
C6	C	0.024200	-0.036725	-0.016394
C7	C	-0.188867	-0.139125	0.050873
H1	H	-0.107933	-0.309325	0.014006
H2	H	0.166800	-0.309659	-0.043327
Br1	Br	0.213133	-0.138059	-0.086727
C8	C	0.108067	0.016075	0.002206
N1	N	0.073267	0.090275	0.053206
N2	N	0.000667	0.060075	0.100006
N3	N	-0.025667	-0.012459	0.066873
C9	C	0.060933	0.173408	0.005739
H3	H	0.143867	0.038075	-0.057194
H4	H	0.153333	-0.018925	0.047673
H5	H	-0.011467	-0.008925	-0.073994
H6	H	-0.218200	-0.204792	0.061739
H7	H	-0.157600	-0.114125	0.111673
H8	H	-0.242667	-0.093059	0.032873
O1	O	-0.128000	-0.139259	-0.021661
O2	O	0.090867	0.248408	0.056939
C10	C	-0.045200	0.291808	0.000539
C11	C	-0.034333	0.194741	-0.024127
H9	H	-0.040467	0.183541	-0.095994
H10	H	-0.081867	0.329475	-0.049927
H11	H	-0.081533	0.296941	0.063873
H12	H	-0.086733	0.155075	0.007473
H13	H	0.082333	0.328075	-0.053394
C12	C	0.050467	0.322475	0.012406
H14	H	0.104733	0.171875	-0.052727

loop_
_geom_bond_atom_site_label_1
_geom_bond_atom_site_label_2
_geom_bond_distance
_ccdc_geom_bond_type
X1	C1	0.08996	. A
X1	C5	0.08971	. A
C1	C2	0.08993	. A
C1	H1	0.07287	. A
C2	C3	0.09133	. A
C2	O1	0.09275	. A
C3	C4	0.09048	. A
C3	C6	0.10183	. A
C4	C5	0.08991	. A
C4	Br1	0.12655	. A
C5	H2	0.07189	. A
C6	C8	0.10083	. A
C6	N3	0.10004	. A
C6	H5	0.07323	. A
C7	H6	0.07274	. A
C7	H7	0.07280	. A
C7	H8	0.07308	. A
C7	O1	0.09469	. A
C8	N1	0.09653	. A
C8	H3	0.07276	. A
C8	H4	0.07308	. A
N1	N2	0.09150	. A
N1	C9	0.09652	. A
N2	N3	0.08398	. A
C9	O2	0.09562	. A
C9	C11	0.10209	. A
C9	H14	0.07307	. A
O2	C12	0.09540	. A
C10	C11	0.10074	. A
C10	H10	0.07287	. A
C10	H11	0.07320	. A
C10	C12	0.10116	. A
C11	H9	0.07299	. A
C11	H12	0.07292	. A
H13	C12	0.07332	. A
