data_tobacco_crystal_2_PM
_symmetry_space_group_name_H-M	'P1'
_cell_length_a	15.000000
_cell_length_b	15.000000
_cell_length_c	15.000000
_cell_angle_alpha	90.000000
_cell_angle_beta	90.000000
_cell_angle_gamma	90.000000
_symmetry_Int_Tables_number 1

loop_
_symmetry_equiv_pos_as_xyz
'x,y,z'

loop_
_atom_site_label
_atom_site_type_symbol
_atom_site_fract_x
_atom_site_fract_y
_atom_site_fract_z
X1	C	0.070122	-0.240596	0.006758
C1	C	-0.008078	-0.196529	0.009758
C2	C	-0.014344	-0.106462	0.004558
C3	C	0.062989	-0.056329	-0.003909
C4	C	0.141589	-0.102796	-0.011176
C5	C	0.144456	-0.192262	-0.004109
C6	C	0.063322	0.045138	-0.000909
C7	C	-0.108944	-0.067262	0.008758
H1	H	-0.068211	-0.236396	0.017291
H2	H	0.209856	-0.222729	-0.007909
O1	O	0.223456	-0.062929	-0.027642
C8	C	-0.004278	0.095338	-0.033642
C9	C	-0.013011	0.184271	-0.021042
C10	C	0.055856	0.228938	0.016958
C11	C	0.127322	0.181938	0.045491
C12	C	0.129122	0.092204	0.039891
C13	C	-0.102478	0.224071	-0.045176
H3	H	-0.057611	0.063871	-0.070176
H4	H	0.186189	0.059071	0.069958
H5	H	0.183589	0.215738	0.076558
H6	H	0.217122	-0.006462	-0.058709
H7	H	-0.154411	0.172338	-0.045976
H8	H	-0.126278	0.270671	0.005558
H9	H	-0.101278	0.256004	-0.110509
C14	C	-0.189344	-0.125662	0.031491
H10	H	-0.197944	-0.179396	-0.017176
H11	H	-0.183944	-0.153996	0.098358
H12	H	-0.250011	-0.085062	0.028758
H13	H	-0.124678	-0.042996	-0.058309
H14	H	-0.110144	-0.011729	0.056224

loop_
_geom_bond_atom_site_label_1
_geom_bond_atom_site_label_2
_geom_bond_distance
_ccdc_geom_bond_type
X1	C1	0.08981	. A
X1	C5	0.08933	. A
C1	C2	0.09043	. A
C1	H1	0.07254	. A
C2	C3	0.09255	. A
C2	C7	0.10249	. A
C3	C4	0.09160	. A
C3	C6	0.10151	. A
C4	C5	0.08979	. A
C4	O1	0.09253	. A
C5	H2	0.07225	. A
C6	C8	0.09034	. A
C6	C12	0.09061	. A
C7	C14	0.10194	. A
C7	H13	0.07304	. A
C7	H14	0.07306	. A
O1	H6	0.06476	. A
C8	C9	0.09025	. A
C8	H3	0.07190	. A
C9	C10	0.09045	. A
C9	C13	0.10085	. A
C10	C11	0.09017	. A
C11	C12	0.08993	. A
C11	H5	0.07262	. A
C12	H4	0.07252	. A
C13	H7	0.07331	. A
C13	H8	0.07288	. A
C13	H9	0.07273	. A
C14	H10	0.07300	. A
C14	H11	0.07282	. A
C14	H12	0.07305	. A
