data_tobacco_crystal_2_PM
_symmetry_space_group_name_H-M	'P1'
_cell_length_a	15.000000
_cell_length_b	15.000000
_cell_length_c	15.000000
_cell_angle_alpha	90.000000
_cell_angle_beta	90.000000
_cell_angle_gamma	90.000000
_symmetry_Int_Tables_number 1

loop_
_symmetry_equiv_pos_as_xyz
'x,y,z'

loop_
_atom_site_label
_atom_site_type_symbol
_atom_site_fract_x
_atom_site_fract_y
_atom_site_fract_z
X1	C	-0.044681	-0.219910	0.000174
C1	C	-0.119014	-0.173710	-0.021293
C2	C	-0.115881	-0.084976	-0.028493
C3	C	-0.037614	-0.041776	-0.018626
C4	C	0.039186	-0.089510	-0.008160
C5	C	0.036186	-0.179443	0.004507
C6	C	-0.036214	0.057024	0.003907
H1	H	-0.178414	-0.049510	-0.038293
H2	H	-0.183348	-0.207643	-0.026560
C7	C	0.195719	-0.221910	0.003640
C8	C	0.122119	-0.041576	-0.006026
O1	O	0.015319	0.114224	-0.052626
C9	C	-0.089081	0.205490	0.016507
C10	C	-0.120481	0.109557	0.025507
N1	N	0.053052	0.278824	-0.038093
H3	H	-0.175548	0.097090	-0.020560
H4	H	-0.102414	0.245824	0.075774
H5	H	-0.124881	0.235290	-0.039760
H6	H	-0.143481	0.094424	0.093174
H7	H	0.046252	0.185157	0.059774
C11	C	0.010986	0.197357	-0.003426
H8	H	-0.000881	0.055957	0.068507
N2	N	0.189519	-0.003376	-0.007693
H9	H	0.204186	-0.176576	-0.052426
H10	H	0.218119	-0.287576	-0.018626
H11	H	0.236719	-0.202310	0.060707
O2	O	0.106052	-0.233043	0.031507
N3	N	-0.001481	0.336624	-0.063026

loop_
_geom_bond_atom_site_label_1
_geom_bond_atom_site_label_2
_geom_bond_distance
_ccdc_geom_bond_type
X1	C1	0.09011	. A
X1	C5	0.09053	. A
C1	C2	0.08908	. A
C1	H2	0.07292	. A
C2	C3	0.08994	. A
C2	H1	0.07256	. A
C3	C4	0.09103	. A
C3	C6	0.10135	. A
C4	C5	0.09087	. A
C4	C8	0.09581	. A
C5	O2	0.09210	. A
C6	O1	0.09552	. A
C6	C10	0.10162	. A
C6	H8	0.07364	. A
C7	H9	0.07260	. A
C7	H10	0.07287	. A
C7	H11	0.07295	. A
C7	O2	0.09455	. A
C8	N2	0.07749	. A
O1	C11	0.09670	. A
C9	C10	0.10134	. A
C9	H4	0.07292	. A
C9	H5	0.07305	. A
C9	C11	0.10236	. A
C10	H3	0.07287	. A
C10	H6	0.07305	. A
N1	C11	0.09802	. A
N1	N3	0.08329	. A
H7	C11	0.07339	. A
