data_tobacco_crystal_2_PM
_symmetry_space_group_name_H-M	'P1'
_cell_length_a	15.000000
_cell_length_b	15.000000
_cell_length_c	15.000000
_cell_angle_alpha	90.000000
_cell_angle_beta	90.000000
_cell_angle_gamma	90.000000
_symmetry_Int_Tables_number 1

loop_
_symmetry_equiv_pos_as_xyz
'x,y,z'

loop_
_atom_site_label
_atom_site_type_symbol
_atom_site_fract_x
_atom_site_fract_y
_atom_site_fract_z
X1	C	-0.038347	-0.354627	0.010389
C1	C	-0.117680	-0.315493	-0.006211
C2	C	-0.123880	-0.226360	-0.013078
C3	C	-0.051413	-0.172893	-0.004611
C4	C	0.027720	-0.212027	0.015189
C5	C	0.033187	-0.301893	0.023322
C6	C	-0.063280	-0.073693	-0.022145
H1	H	-0.189013	-0.197693	-0.027411
H2	H	-0.177880	-0.355227	-0.015145
H3	H	0.097987	-0.329160	0.040322
C7	C	0.165187	-0.166560	-0.043878
C8	C	0.004453	-0.004160	0.006055
N1	N	-0.053547	0.073240	0.005389
N2	N	-0.138347	0.046307	0.029122
N3	N	-0.145347	-0.036760	0.019322
C9	C	-0.024680	0.158840	0.037989
H4	H	0.059253	0.004440	-0.041145
H5	H	0.029120	-0.013627	0.074189
H6	H	-0.072480	-0.067627	-0.094678
C10	C	0.058920	0.200107	-0.001745
C11	C	0.046587	0.296773	0.027522
N4	N	-0.051013	0.310840	0.031322
N5	N	-0.090413	0.225373	0.011055
N6	N	0.097320	0.361040	-0.027078
H7	H	-0.148813	0.213173	0.043855
H8	H	-0.065813	0.355573	-0.018345
H9	H	0.120053	0.170707	0.025255
H10	H	0.071587	0.303573	0.095922
H11	H	0.061120	0.193640	-0.074678
H12	H	-0.019480	0.154707	0.110855
N7	N	0.048587	0.420840	-0.059278
H13	H	0.135187	-0.140293	-0.104878
H14	H	0.222920	-0.125293	-0.027078
H15	H	0.188520	-0.234893	-0.054278
O1	O	0.103720	-0.160893	0.028589

loop_
_geom_bond_atom_site_label_1
_geom_bond_atom_site_label_2
_geom_bond_distance
_ccdc_geom_bond_type
X1	C1	0.09000	. A
X1	C5	0.08981	. A
C1	C2	0.08961	. A
C1	H2	0.07268	. A
C2	C3	0.09045	. A
C2	H1	0.07259	. A
C3	C4	0.09047	. A
C3	C6	0.10143	. A
C4	C5	0.09040	. A
C4	O1	0.09258	. A
C5	H3	0.07233	. A
C6	C8	0.10108	. A
C6	N3	0.09909	. A
C6	H6	0.07337	. A
C7	H13	0.07288	. A
C7	H14	0.07293	. A
C7	H15	0.07295	. A
C7	O1	0.09519	. A
C8	N1	0.09672	. A
C8	H4	0.07283	. A
C8	H5	0.07308	. A
N1	N2	0.09209	. A
N1	C9	0.09604	. A
N2	N3	0.08394	. A
C9	C10	0.10134	. A
C9	N5	0.09733	. A
C9	H12	0.07317	. A
C10	C11	0.10175	. A
C10	H9	0.07301	. A
C10	H11	0.07325	. A
C11	N4	0.09868	. A
C11	N6	0.09841	. A
C11	H10	0.07314	. A
N4	N5	0.09627	. A
N4	H8	0.06846	. A
N5	H7	0.06808	. A
N6	N7	0.08359	. A
