data_tobacco_crystal_2_PM
_symmetry_space_group_name_H-M	'P1'
_cell_length_a	15.000000
_cell_length_b	15.000000
_cell_length_c	15.000000
_cell_angle_alpha	90.000000
_cell_angle_beta	90.000000
_cell_angle_gamma	90.000000
_symmetry_Int_Tables_number 1

loop_
_symmetry_equiv_pos_as_xyz
'x,y,z'

loop_
_atom_site_label
_atom_site_type_symbol
_atom_site_fract_x
_atom_site_fract_y
_atom_site_fract_z
X1	C	-0.046340	-0.332979	-0.025624
C1	C	-0.112140	-0.280646	-0.055757
C2	C	-0.102607	-0.191846	-0.053824
C3	C	-0.027874	-0.148913	-0.023824
C4	C	0.041460	-0.203713	0.001043
C5	C	0.030060	-0.294646	0.002576
C6	C	-0.034340	-0.043446	-0.015357
H1	H	-0.160807	-0.156179	-0.076691
H2	H	-0.174940	-0.308913	-0.078957
O1	O	0.096260	-0.350513	0.036243
C7	C	0.133526	-0.168046	0.023643
C8	C	0.038526	0.031287	-0.026091
C9	C	-0.010007	0.111554	-0.070624
N1	N	-0.104740	0.086287	-0.065157
N2	N	-0.106340	-0.007779	-0.073091
C10	C	-0.002207	0.214221	-0.049157
H3	H	-0.166607	-0.031246	-0.051957
H4	H	-0.129007	0.104621	-0.003957
H5	H	0.092660	0.008821	-0.069357
H6	H	0.009460	0.107087	-0.141224
H7	H	0.066193	0.050154	0.038909
H8	H	-0.057540	-0.035313	0.053909
C11	C	0.142660	-0.135046	0.118643
H9	H	0.213126	-0.124046	0.134109
H10	H	0.107526	-0.071979	0.127976
H11	H	0.116260	-0.183379	0.166443
H12	H	0.153126	-0.116446	-0.024091
H13	H	0.183926	-0.220179	0.012776
H14	H	0.112593	-0.332179	0.096576
O2	O	0.076526	0.251887	-0.008957
C12	C	-0.048474	0.348887	0.014376
C13	C	-0.077474	0.253754	0.007243
H15	H	-0.143474	0.249221	-0.023424
H16	H	-0.079807	0.385154	0.069443
H17	H	-0.065540	0.384487	-0.047424
H18	H	-0.079074	0.223821	0.073843
H19	H	0.069726	0.339554	0.096443
C14	C	0.052260	0.339954	0.025243
H20	H	-0.006540	0.246687	-0.114891

loop_
_geom_bond_atom_site_label_1
_geom_bond_atom_site_label_2
_geom_bond_distance
_ccdc_geom_bond_type
X1	C1	0.08931	. A
X1	C5	0.09001	. A
C1	C2	0.08933	. A
C1	H2	0.07267	. A
C2	C3	0.09126	. A
C2	H1	0.07199	. A
C3	C4	0.09181	. A
C3	C6	0.10600	. A
C4	C5	0.09166	. A
C4	C7	0.10129	. A
C5	O1	0.09294	. A
C6	C8	0.10493	. A
C6	N2	0.09894	. A
C6	H8	0.07350	. A
O1	H14	0.06514	. A
C7	C11	0.10098	. A
C7	H12	0.07297	. A
C7	H13	0.07332	. A
C8	C9	0.10383	. A
C8	H5	0.07285	. A
C8	H7	0.07312	. A
C9	N1	0.09820	. A
C9	C10	0.10518	. A
C9	H6	0.07337	. A
N1	N2	0.09441	. A
N1	H4	0.06834	. A
N2	H3	0.06804	. A
C10	O2	0.09609	. A
C10	C13	0.10202	. A
C10	H20	0.07344	. A
C11	H9	0.07298	. A
C11	H10	0.07279	. A
C11	H11	0.07292	. A
O2	C14	0.09754	. A
C12	C13	0.09971	. A
C12	H16	0.07300	. A
C12	H17	0.07333	. A
C12	C14	0.10171	. A
C13	H15	0.07292	. A
C13	H18	0.07304	. A
H19	C14	0.07331	. A
