data_tobacco_crystal_2_PM
_symmetry_space_group_name_H-M	'P1'
_cell_length_a	15.000000
_cell_length_b	15.000000
_cell_length_c	15.000000
_cell_angle_alpha	90.000000
_cell_angle_beta	90.000000
_cell_angle_gamma	90.000000
_symmetry_Int_Tables_number 1

loop_
_symmetry_equiv_pos_as_xyz
'x,y,z'

loop_
_atom_site_label
_atom_site_type_symbol
_atom_site_fract_x
_atom_site_fract_y
_atom_site_fract_z
X1	C	-0.001288	-0.223233	-0.008436
C1	C	-0.082355	-0.183700	-0.006770
C2	C	-0.092288	-0.095033	0.000897
C3	C	-0.019755	-0.040967	0.007164
C4	C	0.061312	-0.080433	0.000630
C5	C	0.071112	-0.169567	-0.007236
C6	C	-0.026155	0.059567	0.022097
O1	O	-0.178821	-0.064167	0.004697
H1	H	-0.143088	-0.223433	-0.010103
C7	C	0.159379	-0.203167	-0.011836
H2	H	0.121912	-0.040300	0.003697
C8	C	0.052779	0.118167	-0.003170
N1	N	0.007645	0.194567	-0.038903
N2	N	-0.080755	0.179100	-0.052636
N3	N	-0.099221	0.101167	-0.028703
C9	C	0.030179	0.284033	-0.011236
H3	H	0.095445	0.132500	0.054430
H4	H	0.094112	0.089833	-0.056236
H5	H	-0.040355	0.069500	0.093297
H6	H	-0.190421	-0.028233	0.057164
N4	N	0.227912	-0.238433	-0.013370
C10	C	0.032712	0.362233	0.004564

loop_
_geom_bond_atom_site_label_1
_geom_bond_atom_site_label_2
_geom_bond_distance
_ccdc_geom_bond_type
X1	C1	0.09021	. A
X1	C5	0.09013	. A
C1	C2	0.08955	. A
C1	H1	0.07265	. A
C2	C3	0.09068	. A
C2	O1	0.09195	. A
C3	C4	0.09040	. A
C3	C6	0.10184	. A
C4	C5	0.09001	. A
C4	H2	0.07275	. A
C5	C7	0.09456	. A
C6	C8	0.10150	. A
C6	N3	0.09823	. A
C6	H5	0.07328	. A
O1	H6	0.06464	. A
C7	N4	0.07709	. A
C8	N1	0.09566	. A
C8	H3	0.07310	. A
C8	H4	0.07299	. A
N1	N2	0.09079	. A
N1	C9	0.09632	. A
N2	N3	0.08359	. A
C9	C10	0.07982	. A
