data_tobacco_crystal_2_PM
_symmetry_space_group_name_H-M	'P1'
_cell_length_a	15.000000
_cell_length_b	15.000000
_cell_length_c	15.000000
_cell_angle_alpha	90.000000
_cell_angle_beta	90.000000
_cell_angle_gamma	90.000000
_symmetry_Int_Tables_number 1

loop_
_symmetry_equiv_pos_as_xyz
'x,y,z'

loop_
_atom_site_label
_atom_site_type_symbol
_atom_site_fract_x
_atom_site_fract_y
_atom_site_fract_z
X1	C	0.026339	-0.273336	0.015773
C1	C	-0.052995	-0.229936	0.016973
C2	C	-0.054128	-0.140003	0.009973
C3	C	0.021405	-0.091736	0.002640
C4	C	0.099539	-0.136069	0.001440
C5	C	0.102605	-0.225536	0.006307
N1	N	0.016405	-0.002603	-0.013160
H1	H	-0.117661	-0.104336	0.008907
C6	C	-0.137861	-0.273003	0.023373
O1	O	0.185472	-0.266069	0.000573
H2	H	0.160872	-0.098203	-0.007160
H3	H	0.196939	-0.286269	-0.060493
N2	N	0.040605	0.050997	0.046040
C7	C	0.031339	0.141531	0.008773
O2	O	0.069939	0.217931	0.052507
C8	C	-0.066061	0.266731	-0.005493
C9	C	-0.066995	0.166064	0.000840
H4	H	-0.104395	0.145264	0.060173
H5	H	-0.106661	0.294997	0.048307
H6	H	-0.093661	0.290464	-0.068760
H7	H	-0.098261	0.134397	-0.056960
H8	H	0.062272	0.288531	-0.063627
C10	C	0.032339	0.290931	0.003307
H9	H	0.062472	0.140264	-0.057627
N3	N	-0.209861	-0.301003	0.027373

loop_
_geom_bond_atom_site_label_1
_geom_bond_atom_site_label_2
_geom_bond_distance
_ccdc_geom_bond_type
X1	C1	0.09044	. A
X1	C5	0.09050	. A
C1	C2	0.09021	. A
C1	C6	0.09538	. A
C2	C3	0.08994	. A
C2	H1	0.07287	. A
C3	C4	0.08984	. A
C3	N1	0.09066	. A
C4	C5	0.08965	. A
C4	H2	0.07259	. A
C5	O1	0.09243	. A
N1	N2	0.08345	. A
C6	N3	0.07736	. A
O1	H3	0.06533	. A
N2	C7	0.09834	. A
C7	O2	0.09612	. A
C7	C9	0.10166	. A
C7	H9	0.07335	. A
O2	C10	0.09573	. A
C8	C9	0.10087	. A
C8	H5	0.07309	. A
C8	H6	0.07299	. A
C8	C10	0.10171	. A
C9	H4	0.07316	. A
C9	H7	0.07295	. A
H8	C10	0.07336	. A
