data_tobacco_crystal_2_PM
_symmetry_space_group_name_H-M	'P1'
_cell_length_a	15.000000
_cell_length_b	15.000000
_cell_length_c	15.000000
_cell_angle_alpha	90.000000
_cell_angle_beta	90.000000
_cell_angle_gamma	90.000000
_symmetry_Int_Tables_number 1

loop_
_symmetry_equiv_pos_as_xyz
'x,y,z'

loop_
_atom_site_label
_atom_site_type_symbol
_atom_site_fract_x
_atom_site_fract_y
_atom_site_fract_z
X1	C	0.036159	-0.500800	0.014433
C1	C	-0.042575	-0.458800	-0.000567
C2	C	-0.045775	-0.369600	0.004167
C3	C	0.026759	-0.320200	0.024100
C4	C	0.103425	-0.363000	0.044167
C5	C	0.108025	-0.452400	0.039900
C6	C	0.020492	-0.223400	0.015633
H1	H	-0.108375	-0.336467	-0.011433
O1	O	-0.119575	-0.503867	-0.023367
H2	H	0.171492	-0.482667	0.055967
H3	H	0.163025	-0.325600	0.061833
C7	C	-0.052308	-0.178333	0.044100
C8	C	-0.061041	-0.090867	0.028033
C9	C	0.002492	-0.045067	-0.016500
C10	C	0.075359	-0.090067	-0.044633
C11	C	0.084492	-0.177533	-0.028233
C12	C	-0.004908	0.052267	-0.024833
H4	H	-0.120575	-0.058067	0.053233
H5	H	-0.105575	-0.211600	0.080233
H6	H	0.144359	-0.210533	-0.052033
H7	H	0.128959	-0.056867	-0.080300
C13	C	-0.084241	0.094667	-0.029300
C14	C	-0.089708	0.183467	-0.017700
C15	C	-0.015641	0.232800	-0.002367
C16	C	0.064025	0.191133	-0.006833
C17	C	0.069492	0.102867	-0.017633
C18	C	-0.022175	0.330133	0.023500
H8	H	-0.155441	0.213800	-0.016433
H9	H	-0.146375	0.057867	-0.037367
H10	H	0.135359	0.073200	-0.015433
H11	H	0.126492	0.226333	0.003233
H12	H	-0.172041	-0.466000	-0.024633
C19	C	0.061959	0.386733	0.010767
C20	C	0.028225	0.476133	-0.022300
N1	N	-0.068375	0.472600	-0.004767
N2	N	-0.092108	0.381333	-0.022433
H13	H	-0.152308	0.365600	0.005567
H14	H	-0.100041	0.517200	-0.045633
H15	H	0.107692	0.359933	-0.039433
H16	H	0.040559	0.482200	-0.094100
H17	H	0.098225	0.391000	0.074167
H18	H	-0.037908	0.330467	0.095233

loop_
_geom_bond_atom_site_label_1
_geom_bond_atom_site_label_2
_geom_bond_distance
_ccdc_geom_bond_type
X1	C1	0.09049	. A
X1	C5	0.09031	. A
X1	C19	0.11545	. A
X1	C20	0.04409	. A
X1	N1	0.10956	. A
X1	H16	0.10994	. A
C1	C2	0.08938	. A
C1	O1	0.09209	. A
C1	C20	0.09858	. A
C1	N1	0.07341	. A
C1	H14	0.07687	. A
C2	C3	0.08999	. A
C2	H1	0.07253	. A
C3	C4	0.09007	. A
C3	C6	0.09737	. A
C4	C5	0.08962	. A
C4	H3	0.07255	. A
C5	H2	0.07213	. A
C5	C20	0.12387	. A
C6	C7	0.09023	. A
C6	C11	0.09013	. A
O1	H12	0.06472	. A
O1	N1	0.05934	. A
O1	N2	0.11804	. A
O1	H14	0.03635	. A
C7	C8	0.08936	. A
C7	H5	0.07245	. A
C8	C9	0.09010	. A
C8	H4	0.07249	. A
C9	C10	0.09014	. A
C9	C12	0.09797	. A
C10	C11	0.08946	. A
C10	H7	0.07244	. A
C11	H6	0.07238	. A
C12	C13	0.09006	. A
C12	C17	0.09026	. A
C13	C14	0.08972	. A
C13	H9	0.07266	. A
C14	C15	0.09030	. A
C14	H8	0.07241	. A
C15	C16	0.09002	. A
C15	C18	0.10092	. A
C16	C17	0.08909	. A
C16	H11	0.07240	. A
C17	H10	0.07227	. A
C18	C19	0.10220	. A
C18	N2	0.09809	. A
C18	H18	0.07344	. A
H12	H14	0.07686	. A
C19	C20	0.10111	. A
C19	H15	0.07301	. A
C19	H17	0.07316	. A
C20	N1	0.09824	. A
C20	H16	0.07310	. A
N1	N2	0.09594	. A
N1	H14	0.06828	. A
N2	H13	0.06823	. A
