data_tobacco_crystal_2_PM
_symmetry_space_group_name_H-M	'P1'
_cell_length_a	15.000000
_cell_length_b	15.000000
_cell_length_c	15.000000
_cell_angle_alpha	90.000000
_cell_angle_beta	90.000000
_cell_angle_gamma	90.000000
_symmetry_Int_Tables_number 1

loop_
_symmetry_equiv_pos_as_xyz
'x,y,z'

loop_
_atom_site_label
_atom_site_type_symbol
_atom_site_fract_x
_atom_site_fract_y
_atom_site_fract_z
X1	C	0.009202	-0.428558	-0.016495
C1	C	-0.062798	-0.378024	0.001905
C2	C	-0.059198	-0.287958	-0.001295
C3	C	0.019802	-0.248291	-0.023029
C4	C	0.090735	-0.299558	-0.044495
C5	C	0.085668	-0.389091	-0.042562
C6	C	0.027135	-0.148224	-0.022562
C7	C	-0.143332	-0.231758	0.016705
H1	H	-0.124265	-0.411091	0.021171
H2	H	0.144268	-0.426558	-0.062295
H3	H	0.153402	-0.269758	-0.065429
C8	C	0.113602	-0.099624	-0.005295
N1	N	0.090202	-0.016891	-0.049295
N2	N	0.033068	-0.035624	-0.119695
N3	N	0.002468	-0.112891	-0.111229
C9	C	0.068602	0.059642	-0.001829
H4	H	0.170668	-0.126758	-0.041829
H5	H	0.130535	-0.091491	0.065105
H6	H	-0.019465	-0.121224	0.027105
C10	C	-0.233865	-0.272558	-0.004362
H7	H	-0.248865	-0.329291	0.038838
H8	H	-0.237598	-0.293758	-0.074095
H9	H	-0.286065	-0.222558	0.006305
H10	H	-0.142398	-0.210224	0.086638
H11	H	-0.141398	-0.170958	-0.024095
C11	C	-0.015798	0.090909	-0.000695
C12	C	-0.032865	0.175509	0.022905
C13	C	0.034402	0.231376	0.045438
C14	C	0.115868	0.194109	0.059771
C15	C	0.133135	0.109176	0.035971
C16	C	0.022202	0.329776	0.038638
H12	H	-0.101065	0.197642	0.014038
H13	H	-0.070865	0.050842	-0.025429
H14	H	0.201268	0.084842	0.039238
H15	H	0.172068	0.233509	0.082705
C17	C	-0.059332	0.369309	0.035971
C18	C	-0.069065	0.456242	0.015305
C19	C	0.003068	0.506842	-0.001962
C20	C	0.084668	0.469842	0.001371
C21	C	0.093468	0.382842	0.021038
H16	H	-0.135932	0.483976	0.010638
H17	H	-0.120198	0.331442	0.046705
H18	H	0.160802	0.356309	0.018238
H19	H	0.144068	0.508576	-0.013762

loop_
_geom_bond_atom_site_label_1
_geom_bond_atom_site_label_2
_geom_bond_distance
_ccdc_geom_bond_type
X1	C1	0.08987	. A
X1	C5	0.08991	. A
X1	C19	0.06650	. A
C1	C2	0.09020	. A
C1	H1	0.07241	. A
C2	C3	0.09103	. A
C2	C7	0.10277	. A
C3	C4	0.09011	. A
C3	C6	0.10034	. A
C4	C5	0.08970	. A
C4	H3	0.07248	. A
C5	H2	0.07230	. A
C5	H19	0.12129	. A
C6	C8	0.10068	. A
C6	N3	0.09858	. A
C6	H6	0.07326	. A
C7	C10	0.10151	. A
C7	H10	0.07318	. A
C7	H11	0.07325	. A
C8	N1	0.09658	. A
C8	H4	0.07299	. A
C8	H5	0.07286	. A
N1	N2	0.09258	. A
N1	C9	0.09261	. A
N2	N3	0.08354	. A
C9	C11	0.09001	. A
C9	C15	0.08970	. A
C10	H7	0.07287	. A
C10	H8	0.07298	. A
C10	H9	0.07307	. A
C11	C12	0.08947	. A
C11	H13	0.07245	. A
C12	C13	0.09030	. A
C12	H12	0.07225	. A
C13	C14	0.09073	. A
C13	C16	0.09939	. A
C14	C15	0.08988	. A
C14	H15	0.07237	. A
C15	H14	0.07242	. A
C16	C17	0.09065	. A
C16	C21	0.09058	. A
C17	C18	0.08988	. A
C17	H17	0.07248	. A
C18	C19	0.08979	. A
C18	H16	0.07254	. A
C19	C20	0.08966	. A
C20	C21	0.08963	. A
C20	H19	0.07251	. A
C21	H18	0.07243	. A
