data_tobacco_crystal_2_PM
_symmetry_space_group_name_H-M	'P1'
_cell_length_a	15.000000
_cell_length_b	15.000000
_cell_length_c	15.000000
_cell_angle_alpha	90.000000
_cell_angle_beta	90.000000
_cell_angle_gamma	90.000000
_symmetry_Int_Tables_number 1

loop_
_symmetry_equiv_pos_as_xyz
'x,y,z'

loop_
_atom_site_label
_atom_site_type_symbol
_atom_site_fract_x
_atom_site_fract_y
_atom_site_fract_z
X1	C	-0.013508	-0.275094	-0.003221
C1	C	-0.096108	-0.240560	-0.009287
C2	C	-0.110108	-0.152560	-0.006554
C3	C	-0.041708	-0.094560	0.000579
C4	C	0.043692	-0.127560	0.004313
C5	C	0.057892	-0.218227	0.003113
C6	C	-0.069108	0.003173	0.008246
H1	H	-0.178442	-0.129560	-0.009687
H2	H	-0.155308	-0.282494	-0.014754
C7	C	0.151558	-0.255160	0.011979
C8	C	0.121425	-0.062360	0.011646
H3	H	0.174292	-0.281160	-0.052354
H4	H	0.202958	-0.208760	0.032912
H5	H	0.153758	-0.306627	0.063712
C9	C	-0.007108	0.074040	-0.025887
N1	N	-0.068842	0.144240	-0.047421
N2	N	-0.151508	0.107706	-0.063021
N3	N	-0.150708	0.026106	-0.043421
C10	C	-0.067308	0.221906	0.009979
H6	H	0.041158	0.096440	0.023779
H7	H	0.025758	0.055840	-0.088221
H8	H	-0.084908	0.016040	0.078779
H9	H	0.130758	-0.026960	-0.051487
H10	H	0.186892	-0.089827	0.025646
H11	H	0.110825	-0.015627	0.066712
C11	C	0.017692	0.275573	0.002913
N4	N	-0.018308	0.363506	0.012046
N5	N	-0.108108	0.365640	-0.002421
N6	N	-0.136975	0.287573	-0.011154
H12	H	0.051292	0.269973	-0.061754
H13	H	0.065958	0.260306	0.055646
H14	H	-0.077842	0.199040	0.078646

loop_
_geom_bond_atom_site_label_1
_geom_bond_atom_site_label_2
_geom_bond_distance
_ccdc_geom_bond_type
X1	C1	0.08973	. A
X1	C5	0.09150	. A
C1	C2	0.08915	. A
C1	H2	0.07275	. A
C2	C3	0.08996	. A
C2	H1	0.07217	. A
C3	C4	0.09163	. A
C3	C6	0.10179	. A
C4	C5	0.09178	. A
C4	C8	0.10172	. A
C5	C7	0.10107	. A
C6	C9	0.10016	. A
C6	N3	0.09927	. A
C6	H8	0.07342	. A
C7	H3	0.07302	. A
C7	H4	0.07234	. A
C7	H5	0.07301	. A
C8	H9	0.07298	. A
C8	H10	0.07236	. A
C8	H11	0.07300	. A
C9	N1	0.09593	. A
C9	H6	0.07279	. A
C9	H7	0.07278	. A
N1	N2	0.09172	. A
N1	C10	0.09659	. A
N2	N3	0.08392	. A
C10	C11	0.10077	. A
C10	N6	0.09804	. A
C10	H14	0.07314	. A
C11	N4	0.09546	. A
C11	H12	0.07309	. A
C11	H13	0.07310	. A
N4	N5	0.09098	. A
N5	N6	0.08369	. A
