data_tobacco_crystal_2_PM
_symmetry_space_group_name_H-M	'P1'
_cell_length_a	15.000000
_cell_length_b	15.000000
_cell_length_c	15.000000
_cell_angle_alpha	90.000000
_cell_angle_beta	90.000000
_cell_angle_gamma	90.000000
_symmetry_Int_Tables_number 1

loop_
_symmetry_equiv_pos_as_xyz
'x,y,z'

loop_
_atom_site_label
_atom_site_type_symbol
_atom_site_fract_x
_atom_site_fract_y
_atom_site_fract_z
X1	C	0.014051	-0.099639	-0.024063
C1	C	-0.032149	-0.045839	0.032804
C2	C	-0.013549	0.042961	0.032337
C3	C	0.043718	0.077561	-0.028863
C4	C	0.085851	0.023027	-0.086463
C5	C	0.072384	-0.065573	-0.084063
C6	C	0.054984	0.171827	-0.035596
C7	C	-0.052816	0.101427	0.097471
C8	C	-0.104682	-0.083373	0.092937
O1	O	0.118984	-0.117306	-0.144729
H1	H	0.131184	0.050361	-0.136129
H2	H	0.092651	-0.175839	-0.155863
H3	H	-0.145016	-0.031773	0.125137
H4	H	-0.077016	-0.125839	0.145337
H5	H	-0.153082	-0.121173	0.053404
C9	C	0.045318	0.251427	-0.036663
N1	N	-0.080816	0.147761	0.153004

loop_
_geom_bond_atom_site_label_1
_geom_bond_atom_site_label_2
_geom_bond_distance
_ccdc_geom_bond_type
X1	C1	0.09090	. A
X1	C5	0.09035	. A
C1	C2	0.09073	. A
C1	C8	0.10142	. A
C2	C3	0.09068	. A
C2	C7	0.09593	. A
C3	C4	0.08982	. A
C3	C6	0.09518	. A
C4	C5	0.08965	. A
C4	H1	0.07259	. A
C5	O1	0.09235	. A
C6	C9	0.08019	. A
C7	N1	0.07755	. A
C8	H3	0.07298	. A
C8	H4	0.07290	. A
C8	H5	0.07304	. A
O1	H2	0.06514	. A
