data_tobacco_crystal_2_PM
_symmetry_space_group_name_H-M	'P1'
_cell_length_a	15.000000
_cell_length_b	15.000000
_cell_length_c	15.000000
_cell_angle_alpha	90.000000
_cell_angle_beta	90.000000
_cell_angle_gamma	90.000000
_symmetry_Int_Tables_number 1

loop_
_symmetry_equiv_pos_as_xyz
'x,y,z'

loop_
_atom_site_label
_atom_site_type_symbol
_atom_site_fract_x
_atom_site_fract_y
_atom_site_fract_z
X1	C	0.015738	-0.263829	0.000431
C1	C	-0.064795	-0.222495	0.001364
C2	C	-0.072995	-0.133229	0.000564
C3	C	-0.000595	-0.079495	-0.003969
C4	C	0.078805	-0.121495	-0.005436
C5	C	0.090205	-0.211562	-0.000369
C6	C	-0.005595	0.019838	-0.007236
H1	H	-0.140262	-0.106962	0.003764
H2	H	-0.126529	-0.260829	0.003564
C7	C	0.187338	-0.237295	0.007831
H3	H	0.139738	-0.083295	-0.009702
C8	C	-0.084395	0.064771	-0.011836
C9	C	-0.089062	0.155305	-0.010102
C10	C	-0.012462	0.202571	-0.010102
C11	C	0.066405	0.160038	-0.004769
C12	C	0.069071	0.070971	-0.001102
C13	C	-0.010995	0.297438	-0.010436
C14	C	-0.179195	0.198771	0.004631
H4	H	-0.146529	0.028771	-0.013569
H5	H	0.135205	0.043105	0.007898
H6	H	0.128205	0.197238	-0.000636
H7	H	-0.207929	0.232371	-0.053302
H8	H	-0.172462	0.247238	0.058831
H9	H	-0.227329	0.149638	0.028631
C15	C	-0.011395	0.377771	-0.009436
H10	H	0.199138	-0.298162	0.045498
H11	H	0.219271	-0.240629	-0.057769
H12	H	0.223405	-0.186562	0.046764

loop_
_geom_bond_atom_site_label_1
_geom_bond_atom_site_label_2
_geom_bond_distance
_ccdc_geom_bond_type
X1	C1	0.09053	. A
X1	C5	0.09098	. A
C1	C2	0.08965	. A
C1	H2	0.07270	. A
C2	C3	0.09028	. A
C2	H1	0.07228	. A
C3	C4	0.08984	. A
C3	C6	0.09951	. A
C4	C5	0.09093	. A
C4	H3	0.07204	. A
C5	C7	0.10082	. A
C6	C8	0.09083	. A
C6	C12	0.09070	. A
C7	H10	0.07254	. A
C7	H11	0.07304	. A
C7	H12	0.07342	. A
C8	C9	0.09067	. A
C8	H4	0.07183	. A
C9	C10	0.09001	. A
C9	C14	0.10115	. A
C10	C11	0.08976	. A
C10	C13	0.09488	. A
C11	C12	0.08918	. A
C11	H6	0.07225	. A
C12	H5	0.07233	. A
C13	C15	0.08034	. A
C14	H7	0.07288	. A
C14	H8	0.07302	. A
C14	H9	0.07285	. A
