data_tobacco_crystal_2_PM
_symmetry_space_group_name_H-M	'P1'
_cell_length_a	15.000000
_cell_length_b	15.000000
_cell_length_c	15.000000
_cell_angle_alpha	90.000000
_cell_angle_beta	90.000000
_cell_angle_gamma	90.000000
_symmetry_Int_Tables_number 1

loop_
_symmetry_equiv_pos_as_xyz
'x,y,z'

loop_
_atom_site_label
_atom_site_type_symbol
_atom_site_fract_x
_atom_site_fract_y
_atom_site_fract_z
X1	C	-0.003337	-0.494969	-0.000957
C1	C	-0.078604	-0.445569	-0.006423
C2	C	-0.074604	-0.356036	-0.012757
C3	C	0.004663	-0.313303	-0.014623
C4	C	0.079663	-0.363103	-0.009890
C5	C	0.076130	-0.452636	-0.003023
C6	C	0.013663	-0.216636	-0.011557
H1	H	-0.137070	-0.319369	-0.014357
H2	H	-0.143937	-0.477303	-0.003957
H3	H	0.139330	-0.487036	0.002643
H4	H	0.144796	-0.331169	-0.009557
C7	C	-0.050070	-0.154436	-0.022090
C8	C	-0.034604	-0.063236	0.014710
H5	H	-0.117470	-0.171903	-0.041690
H6	H	0.078930	-0.192903	0.010043
O1	O	0.028330	-0.010236	-0.034557
C9	C	-0.073937	0.087497	0.033443
C10	C	-0.115937	-0.003703	0.022243
C11	C	0.062730	0.150364	-0.029490
H7	H	-0.155804	-0.004969	-0.039023
H8	H	-0.083004	0.114897	0.100510
H9	H	-0.104937	0.134497	-0.013290
H10	H	-0.159204	-0.021636	0.078043
H11	H	0.061730	0.061631	0.076510
C12	C	0.025263	0.072297	0.013977
H12	H	-0.007270	-0.072503	0.082310
C13	C	0.075063	0.228697	-0.039690
C14	C	0.066530	0.322431	-0.028623
C15	C	-0.016270	0.356897	-0.021023
C16	C	-0.028137	0.444564	-0.006290
C17	C	0.043330	0.498564	0.001110
C18	C	0.126396	0.464164	-0.004957
C19	C	0.137996	0.376164	-0.019623
H13	H	-0.095604	0.470231	-0.000490
H14	H	-0.074470	0.313964	-0.026157
H15	H	0.205063	0.348964	-0.023490
H16	H	0.184663	0.506831	0.002043

loop_
_geom_bond_atom_site_label_1
_geom_bond_atom_site_label_2
_geom_bond_distance
_ccdc_geom_bond_type
X1	C1	0.09020	. A
X1	C5	0.09006	. A
X1	C16	0.06557	. A
X1	C17	0.04716	. A
X1	H13	0.09861	. A
C1	C2	0.08985	. A
C1	H2	0.07267	. A
C1	C16	0.12090	. A
C1	H13	0.08610	. A
C2	C3	0.09007	. A
C2	H1	0.07245	. A
C3	C4	0.09015	. A
C3	C6	0.09713	. A
C4	C5	0.08987	. A
C4	H4	0.07254	. A
C5	H3	0.07218	. A
C5	C17	0.05894	. A
C5	C18	0.09723	. A
C5	H16	0.11597	. A
C6	C7	0.08968	. A
C6	H6	0.07273	. A
H2	H13	0.07142	. A
H3	C18	0.05105	. A
H3	H16	0.04575	. A
C7	C8	0.09955	. A
C7	H5	0.07233	. A
C8	O1	0.09590	. A
C8	C10	0.10107	. A
C8	H12	0.07350	. A
O1	C12	0.09579	. A
C9	C10	0.10103	. A
C9	H8	0.07301	. A
C9	H9	0.07317	. A
C9	C12	0.10223	. A
C10	H7	0.07311	. A
C10	H10	0.07285	. A
C11	C12	0.09689	. A
C11	C13	0.07995	. A
H11	C12	0.07317	. A
C13	C14	0.09477	. A
C14	C15	0.09001	. A
C14	C19	0.08987	. A
C15	C16	0.08968	. A
C15	H14	0.07250	. A
C16	C17	0.08988	. A
C16	H13	0.07242	. A
C17	C18	0.09011	. A
C18	C19	0.08996	. A
C18	H16	0.07256	. A
C19	H15	0.07248	. A
