data_tobacco_crystal_2_PM
_symmetry_space_group_name_H-M	'P1'
_cell_length_a	15.000000
_cell_length_b	15.000000
_cell_length_c	15.000000
_cell_angle_alpha	90.000000
_cell_angle_beta	90.000000
_cell_angle_gamma	90.000000
_symmetry_Int_Tables_number 1

loop_
_symmetry_equiv_pos_as_xyz
'x,y,z'

loop_
_atom_site_label
_atom_site_type_symbol
_atom_site_fract_x
_atom_site_fract_y
_atom_site_fract_z
X1	C	0.004100	-0.093992	0.003229
C1	C	-0.067700	-0.048792	0.035363
C2	C	-0.065833	0.041942	0.040563
C3	C	0.008233	0.086342	0.013496
C4	C	0.078167	0.040942	-0.020171
C5	C	0.075833	-0.048392	-0.027304
C6	C	0.014167	0.181408	0.016162
Br1	Br	-0.166500	0.105942	0.085229
N1	N	-0.146367	-0.095658	0.063496
N2	N	0.150433	-0.091592	-0.068571
H1	H	0.136633	0.077608	-0.042637
H2	H	0.187100	-0.051058	-0.109037
H3	H	0.134633	-0.147992	-0.103637
H4	H	-0.154300	-0.158258	0.037563
H5	H	-0.203900	-0.059858	0.060963
C7	C	0.015300	0.261408	0.015296

loop_
_geom_bond_atom_site_label_1
_geom_bond_atom_site_label_2
_geom_bond_distance
_ccdc_geom_bond_type
X1	C1	0.09072	. A
X1	C5	0.09032	. A
C1	C2	0.09090	. A
C1	N1	0.09579	. A
C2	C3	0.09050	. A
C3	C4	0.08992	. A
C3	C6	0.09529	. A
C4	C5	0.08965	. A
C4	H1	0.07258	. A
C5	N2	0.09557	. A
C6	C7	0.08001	. A
N1	H4	0.06822	. A
N1	H5	0.06781	. A
N2	H2	0.06801	. A
N2	H3	0.06827	. A
