data_tobacco_crystal_2_PM
_symmetry_space_group_name_H-M	'P1'
_cell_length_a	15.000000
_cell_length_b	15.000000
_cell_length_c	15.000000
_cell_angle_alpha	90.000000
_cell_angle_beta	90.000000
_cell_angle_gamma	90.000000
_symmetry_Int_Tables_number 1

loop_
_symmetry_equiv_pos_as_xyz
'x,y,z'

loop_
_atom_site_label
_atom_site_type_symbol
_atom_site_fract_x
_atom_site_fract_y
_atom_site_fract_z
X1	C	0.000114	-0.223083	0.008475
C1	C	-0.077286	-0.177350	0.007008
C2	C	-0.079019	-0.087350	0.004142
C3	C	-0.000353	-0.041683	0.000608
C4	C	0.076847	-0.088017	0.007208
C5	C	0.077981	-0.177883	0.011275
C6	C	-0.000353	0.057650	-0.017458
C7	C	-0.169553	-0.042217	0.001142
H1	H	-0.140353	-0.213550	0.006342
O1	O	0.158781	-0.222750	0.015075
H2	H	0.140114	-0.052817	0.006408
H3	H	-0.222753	-0.088217	-0.018325
H4	H	-0.171753	0.012450	-0.047125
H5	H	-0.186553	-0.016217	0.067342
H6	H	0.209381	-0.182417	0.021542
C8	C	0.082447	0.116050	-0.014192
N1	N	0.034581	0.198650	-0.008925
N2	N	-0.041219	0.189583	0.040475
N3	N	-0.059086	0.107917	0.043875
C9	C	0.072314	0.285917	-0.011792
H7	H	0.122514	0.105583	0.046075
H8	H	0.124247	0.109583	-0.073592
H9	H	-0.028086	0.064650	-0.085192
C10	C	0.077047	0.365517	-0.010392

loop_
_geom_bond_atom_site_label_1
_geom_bond_atom_site_label_2
_geom_bond_distance
_ccdc_geom_bond_type
X1	C1	0.08991	. A
X1	C5	0.09008	. A
C1	C2	0.09006	. A
C1	H1	0.07272	. A
C2	C3	0.09103	. A
C2	C7	0.10120	. A
C3	C4	0.09028	. A
C3	C6	0.10096	. A
C4	C5	0.08997	. A
C4	H2	0.07240	. A
C5	O1	0.09250	. A
C6	C8	0.10138	. A
C6	N3	0.09868	. A
C6	H9	0.07353	. A
C7	H3	0.07297	. A
C7	H4	0.07296	. A
C7	H5	0.07313	. A
O1	H6	0.06503	. A
C8	N1	0.09561	. A
C8	H7	0.07312	. A
C8	H8	0.07292	. A
N1	N2	0.09093	. A
N1	C9	0.09512	. A
N2	N3	0.08367	. A
C9	C10	0.07975	. A
