data_tobacco_crystal_2_PM
_symmetry_space_group_name_H-M	'P1'
_cell_length_a	15.000000
_cell_length_b	15.000000
_cell_length_c	15.000000
_cell_angle_alpha	90.000000
_cell_angle_beta	90.000000
_cell_angle_gamma	90.000000
_symmetry_Int_Tables_number 1

loop_
_symmetry_equiv_pos_as_xyz
'x,y,z'

loop_
_atom_site_label
_atom_site_type_symbol
_atom_site_fract_x
_atom_site_fract_y
_atom_site_fract_z
X1	C	0.010783	-0.127911	0.000000
C1	C	-0.069950	-0.087444	0.000000
C2	C	-0.076683	0.001956	0.000000
C3	C	-0.003217	0.053289	0.000000
C4	C	0.077783	0.013689	0.000000
C5	C	0.084183	-0.075978	0.000000
C6	C	-0.009617	0.148022	0.000000
F1	F	-0.158550	0.039822	0.000000
F2	F	-0.146417	-0.134844	0.000000
F3	F	0.166517	-0.112444	0.000000
H1	H	0.137917	0.054022	0.000000
C7	C	-0.012750	0.227822	0.000000

loop_
_geom_bond_atom_site_label_1
_geom_bond_atom_site_label_2
_geom_bond_distance
_ccdc_geom_bond_type
X1	C1	0.09031	. A
X1	C5	0.08991	. A
C1	C2	0.08965	. A
C1	F2	0.08997	. A
C2	C3	0.08962	. A
C2	F1	0.09020	. A
C3	C4	0.09016	. A
C3	C6	0.09495	. A
C4	C5	0.08989	. A
C4	H1	0.07241	. A
C5	F3	0.09005	. A
C6	C7	0.07986	. A
