data_tobacco_crystal_2_PM
_symmetry_space_group_name_H-M	'P1'
_cell_length_a	15.000000
_cell_length_b	15.000000
_cell_length_c	15.000000
_cell_angle_alpha	90.000000
_cell_angle_beta	90.000000
_cell_angle_gamma	90.000000
_symmetry_Int_Tables_number 1

loop_
_symmetry_equiv_pos_as_xyz
'x,y,z'

loop_
_atom_site_label
_atom_site_type_symbol
_atom_site_fract_x
_atom_site_fract_y
_atom_site_fract_z
X1	C	0.050050	-0.286000	0.036752
C1	C	-0.028083	-0.250800	0.006818
C2	C	-0.027417	-0.163600	-0.015782
C3	C	0.043783	-0.108667	-0.008048
C4	C	0.118783	-0.145000	0.025952
C5	C	0.122383	-0.232333	0.048218
C6	C	0.038383	-0.013667	-0.044915
H1	H	-0.088217	-0.137267	-0.044515
C7	C	-0.116550	-0.300667	-0.004048
N1	N	0.205450	-0.266800	0.081285
H2	H	0.177450	-0.102867	0.032952
O1	O	0.072850	0.061000	0.007418
C8	C	-0.042750	0.114933	-0.084915
C9	C	-0.056017	0.018400	-0.063782
C10	C	0.046183	0.233800	-0.016715
H3	H	-0.089617	-0.016267	-0.118315
H4	H	-0.045883	0.128400	-0.156515
H5	H	-0.096017	0.153733	-0.053315
H6	H	-0.097083	0.013000	-0.003315
H7	H	0.099183	0.135267	-0.103248
C11	C	0.050517	0.136867	-0.048582
H8	H	0.076383	-0.015133	-0.107715
O2	O	0.126983	0.285400	-0.012115
C12	C	0.008917	0.360867	0.060952
C13	C	0.000317	0.259800	0.069018
H9	H	-0.069017	0.238267	0.074085
H10	H	0.010983	0.394067	0.125818
H11	H	-0.048483	0.388200	0.024618
H12	H	0.037383	0.236467	0.127485
H13	H	0.074583	0.398733	-0.062648
C14	C	0.093317	0.374133	0.003818
H14	H	0.009250	0.265467	-0.071915
H15	H	0.248183	-0.219200	0.104085
H16	H	0.198850	-0.315333	0.128618
C15	C	-0.199483	-0.245267	0.019552
H17	H	-0.188617	-0.205467	0.079885
H18	H	-0.217883	-0.200067	-0.034848
H19	H	-0.256750	-0.288800	0.031418
H20	H	-0.119750	-0.358667	0.039352
H21	H	-0.122550	-0.324933	-0.072848

loop_
_geom_bond_atom_site_label_1
_geom_bond_atom_site_label_2
_geom_bond_distance
_ccdc_geom_bond_type
X1	C1	0.09077	. A
X1	C5	0.09079	. A
C1	C2	0.09008	. A
C1	C7	0.10213	. A
C2	C3	0.09026	. A
C2	H1	0.07222	. A
C3	C4	0.09001	. A
C3	C6	0.10205	. A
C4	C5	0.09020	. A
C4	H2	0.07257	. A
C5	N1	0.09582	. A
C6	O1	0.09748	. A
C6	C9	0.10147	. A
C6	H8	0.07342	. A
C7	C15	0.10249	. A
C7	H20	0.07251	. A
C7	H21	0.07320	. A
N1	H15	0.06791	. A
N1	H16	0.06811	. A
O1	C11	0.09690	. A
C8	C9	0.09971	. A
C8	H4	0.07292	. A
C8	H5	0.07308	. A
C8	C11	0.10247	. A
C9	H3	0.07283	. A
C9	H6	0.07329	. A
C10	C11	0.10213	. A
C10	O2	0.09598	. A
C10	C13	0.10065	. A
C10	H14	0.07358	. A
H7	C11	0.07321	. A
O2	C14	0.09623	. A
C12	C13	0.10175	. A
C12	H10	0.07290	. A
C12	H11	0.07323	. A
C12	C14	0.10278	. A
C13	H9	0.07278	. A
C13	H12	0.07305	. A
H13	C14	0.07331	. A
C15	H17	0.07309	. A
C15	H18	0.07308	. A
C15	H19	0.07291	. A
