data_tobacco_crystal_2_PM
_symmetry_space_group_name_H-M	'P1'
_cell_length_a	15.000000
_cell_length_b	15.000000
_cell_length_c	15.000000
_cell_angle_alpha	90.000000
_cell_angle_beta	90.000000
_cell_angle_gamma	90.000000
_symmetry_Int_Tables_number 1

loop_
_symmetry_equiv_pos_as_xyz
'x,y,z'

loop_
_atom_site_label
_atom_site_type_symbol
_atom_site_fract_x
_atom_site_fract_y
_atom_site_fract_z
C1	C	0.001461	-0.274952	-0.012141
C2	C	-0.078739	-0.235285	-0.001275
C3	C	-0.085139	-0.145819	-0.004941
C4	C	-0.012872	-0.093752	-0.018808
C5	C	0.066261	-0.134419	-0.032341
C6	C	0.074461	-0.223752	-0.028541
N1	N	-0.024739	-0.002952	-0.014141
H1	H	-0.149339	-0.113619	0.005392
Cl1	Cl	-0.176672	-0.293485	0.021592
N2	N	0.161328	-0.260419	-0.040875
H2	H	0.124928	-0.093752	-0.045008
N3	N	0.041861	0.046781	-0.018275
C7	C	0.025328	0.135981	0.019859
H3	H	0.213395	-0.218019	-0.032608
H4	H	0.171795	-0.318952	-0.007808
O1	O	0.076461	0.209315	-0.015275
C8	C	-0.066805	0.266315	0.004325
C9	C	-0.071672	0.166048	0.012259
H5	H	-0.110205	0.144581	0.070525
H6	H	-0.091139	0.286515	-0.061608
H7	H	-0.107939	0.300248	0.054059
H8	H	-0.104872	0.138848	-0.046875
H9	H	0.047928	0.295115	0.086325
C10	C	0.031595	0.287648	0.015392
H10	H	0.043328	0.131781	0.090792

loop_
_geom_bond_atom_site_label_1
_geom_bond_atom_site_label_2
_geom_bond_distance
_ccdc_geom_bond_type
C1	C2	0.09013	. A
C1	C6	0.09066	. A
C2	C3	0.08977	. A
C2	Cl1	0.11619	. A
C3	C4	0.09014	. A
C3	H1	0.07256	. A
C4	C5	0.08999	. A
C4	N1	0.09169	. A
C5	C6	0.08979	. A
C5	H2	0.07250	. A
C6	N2	0.09509	. A
N1	N3	0.08322	. A
N2	H3	0.06765	. A
N2	H4	0.06804	. A
N3	C7	0.09841	. A
C7	O1	0.09606	. A
C7	C9	0.10184	. A
C7	H10	0.07330	. A
O1	C10	0.09534	. A
C8	C9	0.10070	. A
C8	H6	0.07313	. A
C8	H7	0.07292	. A
C8	C10	0.10129	. A
C9	H5	0.07308	. A
C9	H8	0.07307	. A
H9	C10	0.07317	. A
