data_tobacco_crystal_2_PM
_symmetry_space_group_name_H-M	'P1'
_cell_length_a	15.000000
_cell_length_b	15.000000
_cell_length_c	15.000000
_cell_angle_alpha	90.000000
_cell_angle_beta	90.000000
_cell_angle_gamma	90.000000
_symmetry_Int_Tables_number 1

loop_
_symmetry_equiv_pos_as_xyz
'x,y,z'

loop_
_atom_site_label
_atom_site_type_symbol
_atom_site_fract_x
_atom_site_fract_y
_atom_site_fract_z
X1	C	-0.002942	-0.173884	-0.011316
C1	C	-0.081609	-0.133151	0.004484
C2	C	-0.086276	-0.044284	0.018884
C3	C	-0.010676	0.006116	0.017618
C4	C	0.068191	-0.035418	0.001018
C5	C	0.071858	-0.124218	-0.013982
N1	N	-0.011542	0.096249	0.036284
Br1	Br	-0.199676	0.005849	0.041551
H1	H	-0.142676	-0.172618	0.005818
H2	H	0.136324	-0.153951	-0.028649
C6	C	0.149858	0.014049	-0.000316
N2	N	0.217791	0.050649	-0.001516
N3	N	-0.028876	0.146182	-0.028049
N4	N	-0.013742	0.233449	-0.001516
N5	N	-0.066009	0.284982	-0.040316

loop_
_geom_bond_atom_site_label_1
_geom_bond_atom_site_label_2
_geom_bond_distance
_ccdc_geom_bond_type
X1	C1	0.08998	. A
X1	C5	0.08983	. A
C1	C2	0.09015	. A
C1	H1	0.07272	. A
C2	C3	0.09087	. A
C2	Br1	0.12604	. A
C3	C4	0.09067	. A
C3	N1	0.09205	. A
C4	C5	0.09013	. A
C4	C6	0.09549	. A
C5	H2	0.07249	. A
N1	N3	0.08326	. A
C6	N2	0.07717	. A
N3	N4	0.09246	. A
N4	N5	0.08302	. A
