data_tobacco_crystal_2_PM
_symmetry_space_group_name_H-M	'P1'
_cell_length_a	15.000000
_cell_length_b	15.000000
_cell_length_c	15.000000
_cell_angle_alpha	90.000000
_cell_angle_beta	90.000000
_cell_angle_gamma	90.000000
_symmetry_Int_Tables_number 1

loop_
_symmetry_equiv_pos_as_xyz
'x,y,z'

loop_
_atom_site_label
_atom_site_type_symbol
_atom_site_fract_x
_atom_site_fract_y
_atom_site_fract_z
C1	C	0.020412	-0.033322	-0.004751
C2	C	-0.063922	0.003078	0.001916
C3	C	-0.070122	0.094145	0.007183
C4	C	0.004745	0.144345	0.002116
C5	C	0.085212	0.106478	-0.002084
C6	C	0.096212	0.016945	-0.004284
C7	C	-0.152988	0.140412	0.019383
C8	C	-0.144988	-0.061055	0.004183
C9	C	0.195078	-0.009855	-0.006417
F1	F	0.158145	0.159278	-0.005417
N1	N	-0.218188	0.180545	0.032116
C10	C	0.230945	-0.102588	-0.026751
H1	H	0.199812	-0.132522	-0.085284
H2	H	0.302745	-0.097455	-0.040151
H3	H	0.225078	-0.147055	0.030649
H4	H	0.228078	0.033412	-0.055551
H5	H	0.222945	0.008945	0.058849
C11	C	-0.240988	-0.029055	0.016583
H6	H	-0.250455	0.004078	0.080916
H7	H	-0.286522	-0.086188	0.015583
H8	H	-0.261922	0.014945	-0.037751
H9	H	-0.133455	-0.109522	0.057916
H10	H	-0.145855	-0.097988	-0.058951

loop_
_geom_bond_atom_site_label_1
_geom_bond_atom_site_label_2
_geom_bond_distance
_ccdc_geom_bond_type
C1	C2	0.09210	. A
C1	C6	0.09095	. A
C2	C3	0.09143	. A
C2	C8	0.10339	. A
C3	C4	0.09028	. A
C3	C7	0.09569	. A
C4	C5	0.08903	. A
C5	C6	0.09023	. A
C5	F1	0.09010	. A
C6	C9	0.10246	. A
C7	N1	0.07761	. A
C8	C11	0.10195	. A
C8	H9	0.07328	. A
C8	H10	0.07315	. A
C9	C10	0.10149	. A
C9	H4	0.07331	. A
C9	H5	0.07341	. A
C10	H1	0.07274	. A
C10	H2	0.07322	. A
C10	H3	0.07285	. A
C11	H6	0.07298	. A
C11	H7	0.07307	. A
C11	H8	0.07298	. A
