data_tobacco_crystal_2_PM
_symmetry_space_group_name_H-M	'P1'
_cell_length_a	15.000000
_cell_length_b	15.000000
_cell_length_c	15.000000
_cell_angle_alpha	90.000000
_cell_angle_beta	90.000000
_cell_angle_gamma	90.000000
_symmetry_Int_Tables_number 1

loop_
_symmetry_equiv_pos_as_xyz
'x,y,z'

loop_
_atom_site_label
_atom_site_type_symbol
_atom_site_fract_x
_atom_site_fract_y
_atom_site_fract_z
X1	C	-0.049050	-0.190492	-0.001636
C1	C	-0.127117	-0.150958	-0.021036
C2	C	-0.136117	-0.061492	-0.020969
C3	C	-0.064983	-0.007758	-0.001503
C4	C	0.013750	-0.048358	0.021431
C5	C	0.020683	-0.138958	0.022097
C6	C	-0.074583	0.093375	-0.013836
Br1	Br	-0.250983	-0.017892	-0.051303
H1	H	-0.184383	-0.192292	-0.038369
N1	N	0.104283	-0.180692	0.048697
C7	C	0.159217	0.006842	-0.012236
H2	H	0.124483	-0.148225	0.105964
H3	H	0.153950	-0.158958	0.007031
C8	C	0.003483	0.156708	-0.010703
N2	N	-0.043983	0.237775	0.006431
N3	N	-0.122317	0.221642	0.049564
N4	N	-0.136650	0.138175	0.049431
H4	H	0.042017	0.159908	-0.072436
H5	H	0.047683	0.148775	0.046764
H6	H	-0.103250	0.102308	-0.080903
H7	H	0.179750	0.076375	-0.019569
H8	H	0.142750	-0.019892	-0.078103
H9	H	0.215483	-0.029425	0.016631
O1	O	0.085883	0.003508	0.048564

loop_
_geom_bond_atom_site_label_1
_geom_bond_atom_site_label_2
_geom_bond_distance
_ccdc_geom_bond_type
X1	C1	0.08963	. A
X1	C5	0.08990	. A
C1	C2	0.08992	. A
C1	H1	0.07272	. A
C2	C3	0.09125	. A
C2	Br1	0.12655	. A
C3	C4	0.09151	. A
C3	C6	0.10233	. A
C4	C5	0.09087	. A
C4	O1	0.09290	. A
C5	N1	0.09715	. A
C6	C8	0.10058	. A
C6	N4	0.09931	. A
C6	H6	0.07348	. A
N1	H2	0.06886	. A
N1	H3	0.06838	. A
C7	H7	0.07287	. A
C7	H8	0.07297	. A
C7	H9	0.07290	. A
C7	O1	0.09532	. A
C8	N2	0.09549	. A
C8	H4	0.07284	. A
C8	H5	0.07293	. A
N2	N3	0.09087	. A
N3	N4	0.08469	. A
