data_tobacco_crystal_2_PM
_symmetry_space_group_name_H-M	'P1'
_cell_length_a	15.000000
_cell_length_b	15.000000
_cell_length_c	15.000000
_cell_angle_alpha	90.000000
_cell_angle_beta	90.000000
_cell_angle_gamma	90.000000
_symmetry_Int_Tables_number 1

loop_
_symmetry_equiv_pos_as_xyz
'x,y,z'

loop_
_atom_site_label
_atom_site_type_symbol
_atom_site_fract_x
_atom_site_fract_y
_atom_site_fract_z
X1	C	-0.049684	-0.575960	-0.020919
C1	C	-0.125150	-0.527960	-0.012586
C2	C	-0.121350	-0.439627	0.001614
C3	C	-0.042750	-0.394827	0.008814
C4	C	0.032583	-0.443960	-0.001919
C5	C	0.029383	-0.533160	-0.016519
C6	C	-0.041950	-0.294227	0.030214
H1	H	-0.184350	-0.404827	0.008414
H2	H	-0.190217	-0.559894	-0.016986
H3	H	0.092050	-0.568160	-0.024586
H4	H	0.097383	-0.412227	0.002614
C7	C	0.034583	-0.231894	0.002014
C8	C	-0.004417	-0.139960	0.026548
N1	N	-0.099417	-0.149760	0.002014
N2	N	-0.118684	-0.244760	-0.006452
C9	C	0.031983	-0.054427	-0.014652
H5	H	-0.174684	-0.260294	0.029148
H6	H	-0.109884	-0.119227	-0.058252
H7	H	0.095983	-0.245560	0.039148
H8	H	-0.001150	-0.133360	0.099481
H9	H	0.048783	-0.237294	-0.069519
H10	H	-0.046550	-0.291094	0.103481
C10	C	0.021383	0.026773	0.023948
C11	C	0.028116	0.116973	-0.021852
H11	H	-0.008017	0.029173	0.090481
H12	H	0.056583	-0.058960	-0.082652
C12	C	0.088050	0.190840	0.016348
C13	C	0.046316	0.275906	-0.023519
N3	N	-0.050017	0.254240	-0.026652
N4	N	-0.060084	0.159373	-0.013919
C14	C	0.066450	0.366773	0.023614
H13	H	-0.102950	0.131973	-0.059252
H14	H	-0.082817	0.286773	0.023681
H15	H	0.157450	0.182573	-0.004786
H16	H	0.069650	0.281506	-0.092786
H17	H	0.085916	0.191973	0.089414
H18	H	0.043583	0.107773	-0.092786
O1	O	0.148183	0.407973	-0.007786
C15	C	0.042783	0.523640	0.014548
C16	C	-0.005750	0.436840	0.006014
H19	H	-0.061884	0.431840	0.052414
H20	H	0.048983	0.542573	0.084881
H21	H	0.009183	0.578440	-0.020052
H22	H	-0.031750	0.431106	-0.062119
H23	H	0.131183	0.508106	-0.098386
C17	C	0.132916	0.501306	-0.025586
H24	H	0.074050	0.356973	0.095681

loop_
_geom_bond_atom_site_label_1
_geom_bond_atom_site_label_2
_geom_bond_distance
_ccdc_geom_bond_type
X1	C1	0.08983	. A
X1	C5	0.09002	. A
X1	C16	0.05310	. A
X1	H19	0.07475	. A
X1	H22	0.04549	. A
C1	C2	0.08955	. A
C1	H2	0.07261	. A
C1	C16	0.12586	. A
C1	H19	0.09922	. A
C1	H22	0.11337	. A
C2	C3	0.09076	. A
C2	H1	0.07229	. A
C3	C4	0.09058	. A
C3	C6	0.10285	. A
C3	C15	0.11831	. A
C3	H21	0.06515	. A
C4	C5	0.09044	. A
C4	H4	0.07230	. A
C4	C15	0.03775	. A
C4	C16	0.12546	. A
C4	H20	0.08936	. A
C4	H21	0.03712	. A
C4	C17	0.11672	. A
C5	H3	0.07223	. A
C5	C14	0.11401	. A
C5	C15	0.06611	. A
C5	C16	0.05140	. A
C5	H19	0.11961	. A
C5	H21	0.11347	. A
C5	H22	0.08422	. A
C5	C17	0.10950	. A
C6	C7	0.10265	. A
C6	N2	0.09838	. A
C6	H10	0.07348	. A
H3	O1	0.06327	. A
C7	C8	0.10283	. A
C7	H7	0.07305	. A
C7	H9	0.07313	. A
C8	N1	0.09860	. A
C8	C9	0.10168	. A
C8	H8	0.07330	. A
N1	N2	0.09730	. A
N1	H6	0.06837	. A
N2	H5	0.06815	. A
C9	C10	0.09053	. A
C9	H12	0.07245	. A
C10	C11	0.10139	. A
C10	H11	0.07278	. A
C11	C12	0.10251	. A
C11	N4	0.09818	. A
C11	H18	0.07318	. A
C12	C13	0.10280	. A
C12	H15	0.07302	. A
C12	H17	0.07311	. A
C13	N3	0.09879	. A
C13	C14	0.10432	. A
C13	H16	0.07331	. A
N3	N4	0.09625	. A
N3	H14	0.06832	. A
N4	H13	0.06814	. A
C14	O1	0.09677	. A
C14	C16	0.10214	. A
C14	H24	0.07313	. A
O1	C17	0.09623	. A
C15	C16	0.09981	. A
C15	H20	0.07310	. A
C15	H21	0.07300	. A
C15	C17	0.10116	. A
C16	H19	0.07300	. A
C16	H22	0.07315	. A
H23	C17	0.07314	. A
