data_tobacco_crystal_2_PM
_symmetry_space_group_name_H-M	'P1'
_cell_length_a	15.000000
_cell_length_b	15.000000
_cell_length_c	15.000000
_cell_angle_alpha	90.000000
_cell_angle_beta	90.000000
_cell_angle_gamma	90.000000
_symmetry_Int_Tables_number 1

loop_
_symmetry_equiv_pos_as_xyz
'x,y,z'

loop_
_atom_site_label
_atom_site_type_symbol
_atom_site_fract_x
_atom_site_fract_y
_atom_site_fract_z
X1	C	0.005415	-0.411118	0.018419
C1	C	-0.069718	-0.367251	0.040486
C2	C	-0.073651	-0.277985	0.034419
C3	C	-0.003451	-0.228385	0.005886
C4	C	0.073282	-0.272918	-0.014114
C5	C	0.076949	-0.363051	-0.007714
C6	C	-0.015918	-0.130118	-0.018648
H1	H	-0.137918	-0.248118	0.049686
H2	H	-0.129451	-0.403451	0.060619
H3	H	0.138282	-0.395451	-0.027848
Br1	Br	0.176615	-0.214451	-0.057048
O1	O	0.033349	-0.060918	0.029219
C7	C	-0.099051	0.003682	-0.022648
C8	C	-0.111185	-0.095518	-0.017181
C9	C	0.029215	0.113282	0.011819
H4	H	-0.152251	-0.121918	-0.071314
H5	H	-0.126318	0.032549	-0.083848
H6	H	-0.135451	0.031415	0.034286
H7	H	-0.144518	-0.109785	0.046352
H8	H	0.029682	0.013482	-0.083981
C10	C	0.002149	0.018682	-0.016114
H9	H	0.005749	-0.126118	-0.088714
C11	C	-0.035651	0.174815	0.024019
C12	C	-0.018785	0.262215	0.027086
C13	C	0.064549	0.294282	0.017486
C14	C	0.131482	0.233349	0.012686
C15	C	0.114149	0.144349	0.009819
C16	C	0.079482	0.390682	0.010952
H10	H	-0.076518	0.305015	0.033352
H11	H	-0.105718	0.158215	0.026619
H12	H	0.169415	0.098149	0.000819
H13	H	0.200282	0.255415	0.007019
C17	C	0.013349	0.450749	0.000552
H14	H	-0.056051	0.432415	-0.004048
H15	H	0.148215	0.413815	0.011619

loop_
_geom_bond_atom_site_label_1
_geom_bond_atom_site_label_2
_geom_bond_distance
_ccdc_geom_bond_type
X1	C1	0.08976	. A
X1	C5	0.09006	. A
C1	C2	0.08956	. A
C1	H2	0.07269	. A
C2	C3	0.09057	. A
C2	H1	0.07249	. A
C3	C4	0.09095	. A
C3	C6	0.10205	. A
C4	C5	0.09043	. A
C4	Br1	0.12625	. A
C5	H3	0.07223	. A
C6	O1	0.09750	. A
C6	C8	0.10137	. A
C6	H9	0.07345	. A
O1	C10	0.09677	. A
C7	C8	0.10009	. A
C7	H5	0.07295	. A
C7	H6	0.07304	. A
C7	C10	0.10251	. A
C8	H4	0.07290	. A
C8	H7	0.07315	. A
C9	C10	0.10228	. A
C9	C11	0.09024	. A
C9	C15	0.09046	. A
H8	C10	0.07342	. A
C11	C12	0.08907	. A
C11	H11	0.07205	. A
C12	C13	0.08980	. A
C12	H10	0.07214	. A
C13	C14	0.09064	. A
C13	C16	0.09777	. A
C14	C15	0.09072	. A
C14	H13	0.07247	. A
C15	H12	0.07259	. A
C16	C17	0.08994	. A
C16	H15	0.07252	. A
C17	H14	0.07193	. A
