data_tobacco_crystal_2_PM
_symmetry_space_group_name_H-M	'P1'
_cell_length_a	15.000000
_cell_length_b	15.000000
_cell_length_c	15.000000
_cell_angle_alpha	90.000000
_cell_angle_beta	90.000000
_cell_angle_gamma	90.000000
_symmetry_Int_Tables_number 1

loop_
_symmetry_equiv_pos_as_xyz
'x,y,z'

loop_
_atom_site_label
_atom_site_type_symbol
_atom_site_fract_x
_atom_site_fract_y
_atom_site_fract_z
X1	C	-0.035398	-0.302593	0.012536
C1	C	-0.111931	-0.261260	-0.006131
C2	C	-0.112998	-0.172126	-0.017598
C3	C	-0.037598	-0.123126	-0.018931
C4	C	0.042536	-0.164526	0.000802
C5	C	0.040602	-0.252193	0.017402
C6	C	-0.040064	-0.027260	-0.038664
H1	H	-0.177998	-0.140726	-0.029531
H2	H	-0.173398	-0.300926	-0.008131
H3	H	0.103202	-0.281860	0.037069
C7	C	0.149402	-0.040460	0.011069
H4	H	0.125402	-0.006926	-0.048331
H5	H	0.151669	-0.021393	0.081536
H6	H	0.218136	-0.022060	-0.002864
O1	O	0.129002	-0.131726	0.004269
C8	C	-0.085064	0.034607	0.007536
C9	C	-0.060598	0.131474	0.020669
H7	H	-0.140198	0.013874	0.049936
H8	H	0.009069	-0.005460	-0.086931
C10	C	0.033002	0.169940	0.011202
N1	N	0.007802	0.261007	-0.005131
N2	N	-0.076598	0.267207	-0.039531
N3	N	-0.113998	0.192074	-0.035531
N4	N	0.059802	0.333940	0.009402
H9	H	0.069802	0.147474	-0.047731
H10	H	0.073869	0.162140	0.071202
H11	H	-0.079998	0.145274	0.090002
N5	N	0.032536	0.395607	-0.039598

loop_
_geom_bond_atom_site_label_1
_geom_bond_atom_site_label_2
_geom_bond_distance
_ccdc_geom_bond_type
X1	C1	0.08896	. A
X1	C5	0.09132	. A
C1	C2	0.08987	. A
C1	H2	0.07318	. A
C2	C3	0.08993	. A
C2	H1	0.07317	. A
C3	C4	0.09233	. A
C3	C6	0.09791	. A
C4	C5	0.08925	. A
C4	O1	0.09254	. A
C5	H3	0.07201	. A
C6	C8	0.08937	. A
C6	H8	0.07224	. A
C7	H4	0.07231	. A
C7	H5	0.07304	. A
C7	H6	0.07250	. A
C7	O1	0.09377	. A
C8	C9	0.10077	. A
C8	H7	0.07258	. A
C9	C10	0.10164	. A
C9	N3	0.09840	. A
C9	H11	0.07331	. A
C10	N1	0.09589	. A
C10	H9	0.07302	. A
C10	H10	0.07301	. A
N1	N2	0.09135	. A
N1	N4	0.09074	. A
N2	N3	0.08402	. A
N4	N5	0.08335	. A
