data_tobacco_crystal_2_PM
_symmetry_space_group_name_H-M	'P1'
_cell_length_a	15.000000
_cell_length_b	15.000000
_cell_length_c	15.000000
_cell_angle_alpha	90.000000
_cell_angle_beta	90.000000
_cell_angle_gamma	90.000000
_symmetry_Int_Tables_number 1

loop_
_symmetry_equiv_pos_as_xyz
'x,y,z'

loop_
_atom_site_label
_atom_site_type_symbol
_atom_site_fract_x
_atom_site_fract_y
_atom_site_fract_z
X1	C	0.013846	-0.285423	0.000000
C1	C	-0.067354	-0.236623	0.000000
C2	C	-0.067887	-0.145156	0.000000
C3	C	0.011246	-0.100290	0.000000
C4	C	0.086046	-0.142690	0.000000
C5	C	0.087979	-0.234890	0.000000
C6	C	0.014846	-0.003756	0.000000
H1	H	-0.130754	-0.109090	0.000000
C7	C	-0.150687	-0.293223	0.000000
Br1	Br	0.197313	-0.293490	0.000000
H2	H	0.147046	-0.102023	0.000000
H3	H	-0.222754	-0.293956	0.000000
H4	H	-0.162221	-0.365423	0.000000
H5	H	-0.100287	-0.338556	0.000000
C8	C	0.024646	0.075777	0.000000
C9	C	0.009579	0.180777	0.000000
C10	C	0.099113	0.229244	0.000000
C11	C	0.071846	0.342777	0.000000
N1	N	-0.023021	0.338977	0.000000
N2	N	-0.059954	0.250310	0.000000
H6	H	-0.127354	0.233910	0.000000
H7	H	-0.061621	0.395244	0.000000
H8	H	0.176046	0.234444	0.000000
X2	C	0.144979	0.359244	0.000000
H9	H	0.141579	0.164844	0.000000
H10	H	-0.052221	0.139044	0.000000

loop_
_geom_bond_atom_site_label_1
_geom_bond_atom_site_label_2
_geom_bond_distance
_ccdc_geom_bond_type
X1	C1	0.09474	. A
X1	C5	0.08972	. A
X1	H5	0.12590	. A
C1	C2	0.09147	. A
C1	C7	0.10074	. A
C1	H5	0.10712	. A
C2	C3	0.09097	. A
C2	H1	0.07248	. A
C3	C4	0.08598	. A
C3	C6	0.09660	. A
C4	C5	0.09222	. A
C4	H2	0.07331	. A
C5	Br1	0.12405	. A
C6	C8	0.08013	. A
C7	H3	0.07207	. A
C7	H4	0.07312	. A
C7	H5	0.06779	. A
H4	H5	0.06751	. A
C8	C9	0.10608	. A
C8	H10	0.09955	. A
C9	C10	0.10181	. A
C9	N2	0.09833	. A
C9	H10	0.07457	. A
C10	C11	0.11676	. A
C10	H8	0.07711	. A
C10	H9	0.07714	. A
C11	N1	0.09494	. A
C11	X2	0.07496	. A
N1	N2	0.09605	. A
N1	H7	0.06823	. A
N2	H6	0.06937	. A
N2	H10	0.11154	. A
H8	H9	0.07767	. A
