data_tobacco_crystal_2_PM
_symmetry_space_group_name_H-M	'P1'
_cell_length_a	15.000000
_cell_length_b	15.000000
_cell_length_c	15.000000
_cell_angle_alpha	90.000000
_cell_angle_beta	90.000000
_cell_angle_gamma	90.000000
_symmetry_Int_Tables_number 1

loop_
_symmetry_equiv_pos_as_xyz
'x,y,z'

loop_
_atom_site_label
_atom_site_type_symbol
_atom_site_fract_x
_atom_site_fract_y
_atom_site_fract_z
C1	C	-0.019941	-0.395418	-0.004128
C2	C	-0.102341	-0.359418	-0.002461
C3	C	-0.113207	-0.272551	-0.021528
C4	C	-0.041741	-0.220485	-0.040928
C5	C	0.040726	-0.257551	-0.044061
C6	C	0.051193	-0.345151	-0.026528
C7	C	-0.048607	-0.124751	-0.053861
H1	H	-0.179941	-0.243685	-0.019261
H2	H	-0.159941	-0.399751	0.015272
H3	H	0.117593	-0.373018	-0.028595
C8	C	0.159393	-0.174951	0.011872
C9	C	-0.074874	-0.071218	0.012805
C10	C	-0.057541	0.026782	0.019605
H4	H	-0.106274	-0.100751	0.071205
H5	H	-0.015741	-0.098085	-0.112928
H6	H	0.113926	-0.138351	0.055805
H7	H	0.190459	-0.230085	0.048272
H8	H	0.211726	-0.128951	-0.009528
O1	O	0.115193	-0.206818	-0.066128
C11	C	0.030326	0.064315	-0.013661
N1	N	0.000993	0.151049	-0.046728
N2	N	-0.088274	0.143849	-0.069328
N3	N	-0.122541	0.075449	-0.035061
C12	C	0.024193	0.231315	0.003672
H9	H	0.081859	0.069515	0.037739
H10	H	0.057859	0.027849	-0.070595
H11	H	-0.065274	0.045782	0.089939
O2	O	0.082259	0.289649	-0.045728
C13	C	-0.017274	0.382915	0.031605
C14	C	-0.054674	0.289849	0.029605
H12	H	-0.107874	0.289249	-0.020461
H13	H	-0.055807	0.424315	-0.014661
H14	H	-0.022141	0.413715	0.097605
H15	H	-0.084274	0.268782	0.092739
H16	H	0.120393	0.363049	0.062339
C15	C	0.079459	0.372515	0.002272
H17	H	0.060726	0.211049	0.063805

loop_
_geom_bond_atom_site_label_1
_geom_bond_atom_site_label_2
_geom_bond_distance
_ccdc_geom_bond_type
C1	C2	0.08994	. A
C1	C6	0.08994	. A
C2	C3	0.08960	. A
C2	H2	0.07252	. A
C3	C4	0.09053	. A
C3	H1	0.07274	. A
C4	C5	0.09047	. A
C4	C7	0.09685	. A
C5	C6	0.08995	. A
C5	O1	0.09277	. A
C6	H3	0.07204	. A
C7	C9	0.08944	. A
C7	H5	0.07266	. A
C8	H6	0.07305	. A
C8	H7	0.07301	. A
C8	H8	0.07289	. A
C8	O1	0.09515	. A
C9	C10	0.09975	. A
C9	H4	0.07259	. A
C10	C11	0.10117	. A
C10	N3	0.09789	. A
C10	H11	0.07326	. A
C11	N1	0.09735	. A
C11	H9	0.07297	. A
C11	H10	0.07300	. A
N1	N2	0.09236	. A
N1	C12	0.09758	. A
N2	N3	0.08383	. A
C12	O2	0.09599	. A
C12	C14	0.10158	. A
C12	H17	0.07322	. A
O2	C15	0.09581	. A
C13	C14	0.10032	. A
C13	H13	0.07307	. A
C13	H14	0.07300	. A
C13	C15	0.10162	. A
C14	H12	0.07306	. A
C14	H15	0.07284	. A
H16	C15	0.07330	. A
