data_tobacco_crystal_2_PM
_symmetry_space_group_name_H-M	'P1'
_cell_length_a	15.000000
_cell_length_b	15.000000
_cell_length_c	15.000000
_cell_angle_alpha	90.000000
_cell_angle_beta	90.000000
_cell_angle_gamma	90.000000
_symmetry_Int_Tables_number 1

loop_
_symmetry_equiv_pos_as_xyz
'x,y,z'

loop_
_atom_site_label
_atom_site_type_symbol
_atom_site_fract_x
_atom_site_fract_y
_atom_site_fract_z
X1	C	-0.026692	-0.249305	0.019551
C1	C	-0.100426	-0.206772	0.049551
C2	C	-0.106026	-0.117238	0.049018
C3	C	-0.040826	-0.065772	0.013151
C4	C	0.030241	-0.109572	-0.023982
C5	C	0.039908	-0.199305	-0.015182
C6	C	-0.048826	0.033762	0.014351
H1	H	-0.165759	-0.087438	0.077485
H2	H	-0.156692	-0.244238	0.076351
C7	C	0.122241	-0.239572	-0.039582
N1	N	0.095641	-0.061905	-0.076315
N2	N	0.187574	-0.279705	-0.049715
H3	H	0.123174	-0.096638	-0.127782
H4	H	0.073841	-0.002172	-0.100315
C8	C	-0.127226	0.077095	0.003285
C9	C	-0.130559	0.166828	-0.000515
C10	C	-0.055626	0.216828	0.003818
C11	C	0.024108	0.175562	0.016351
C12	C	0.024441	0.085828	0.025018
H5	H	-0.195559	0.197895	-0.009582
H6	H	-0.189492	0.040762	-0.003515
H7	H	0.088574	0.054162	0.038085
C13	C	0.114774	0.219962	0.016018
H8	H	0.137841	0.233028	0.083885
H9	H	0.163908	0.176495	-0.016782
H10	H	0.117441	0.281428	-0.022649

loop_
_geom_bond_atom_site_label_1
_geom_bond_atom_site_label_2
_geom_bond_distance
_ccdc_geom_bond_type
X1	C1	0.09025	. A
X1	C5	0.09023	. A
C1	C2	0.08971	. A
C1	H2	0.07272	. A
C2	C3	0.09048	. A
C2	H1	0.07257	. A
C3	C4	0.09137	. A
C3	C6	0.09986	. A
C4	C5	0.09068	. A
C4	N1	0.09637	. A
C5	C7	0.09484	. A
C6	C8	0.09026	. A
C6	C12	0.09051	. A
C7	N2	0.07734	. A
N1	H3	0.06792	. A
N1	H4	0.06797	. A
C8	C9	0.08988	. A
C8	H6	0.07241	. A
C9	C10	0.09019	. A
C9	H5	0.07261	. A
C10	C11	0.09065	. A
C11	C12	0.09015	. A
C11	C13	0.10096	. A
C12	H7	0.07271	. A
C13	H8	0.07286	. A
C13	H9	0.07334	. A
C13	H10	0.07267	. A
