data_tobacco_crystal_2_PM
_symmetry_space_group_name_H-M	'P1'
_cell_length_a	15.000000
_cell_length_b	15.000000
_cell_length_c	15.000000
_cell_angle_alpha	90.000000
_cell_angle_beta	90.000000
_cell_angle_gamma	90.000000
_symmetry_Int_Tables_number 1

loop_
_symmetry_equiv_pos_as_xyz
'x,y,z'

loop_
_atom_site_label
_atom_site_type_symbol
_atom_site_fract_x
_atom_site_fract_y
_atom_site_fract_z
X1	C	-0.067786	-0.314784	-0.000375
C1	C	-0.134986	-0.256984	-0.016775
C2	C	-0.118652	-0.167917	-0.015308
C3	C	-0.037652	-0.131517	0.002825
C4	C	0.028881	-0.191050	0.015959
C5	C	0.015214	-0.281117	0.013292
C6	C	-0.028119	-0.027850	0.018625
H1	H	-0.176052	-0.124517	-0.026041
C7	C	-0.226919	-0.282717	-0.031575
C8	C	0.137748	-0.360850	-0.044175
H2	H	0.095214	-0.167250	0.031825
H3	H	0.146348	-0.433450	-0.044308
H4	H	0.105948	-0.341317	-0.106841
H5	H	0.203548	-0.330117	-0.038775
O1	O	0.086748	-0.337317	0.033159
N1	N	-0.302719	-0.297717	-0.042175
C9	C	0.048348	0.039350	-0.007975
C10	C	0.007081	0.127683	0.027492
N2	N	-0.088652	0.117350	0.003292
N3	N	-0.105252	0.023883	-0.014775
C11	C	0.033081	0.230216	0.023892
H6	H	-0.161852	0.004550	0.017892
H7	H	-0.099852	0.154283	-0.053441
H8	H	0.110614	0.022883	0.026425
H9	H	0.009014	0.116350	0.100092
H10	H	0.059681	0.040216	-0.080108
H11	H	-0.031452	-0.024917	0.092159
C12	C	0.118148	0.279350	-0.004175
C13	C	0.091614	0.376616	0.019959
N4	N	-0.006652	0.379483	0.006559
N5	N	-0.033652	0.289883	-0.019308
H12	H	-0.095252	0.275683	0.006959
H13	H	-0.022519	0.427283	-0.039908
H14	H	0.176681	0.258950	0.034225
H15	H	0.103748	0.387283	0.091425
H16	H	0.133014	0.273483	-0.075508
H17	H	0.027348	0.246616	0.095492

loop_
_geom_bond_atom_site_label_1
_geom_bond_atom_site_label_2
_geom_bond_distance
_ccdc_geom_bond_type
X1	C1	0.09014	. A
X1	C5	0.09060	. A
C1	C2	0.09056	. A
C1	C7	0.09661	. A
C2	C3	0.09064	. A
C2	H1	0.07276	. A
C3	C4	0.09024	. A
C3	C6	0.10530	. A
C4	C5	0.09114	. A
C4	H2	0.07224	. A
C5	O1	0.09311	. A
C6	C9	0.10522	. A
C6	N3	0.09870	. A
C6	H11	0.07367	. A
C7	N1	0.07799	. A
C8	H3	0.07311	. A
C8	H4	0.07294	. A
C8	H5	0.07282	. A
C8	O1	0.09558	. A
C9	C10	0.10375	. A
C9	H8	0.07302	. A
C9	H10	0.07302	. A
C10	N2	0.09928	. A
C10	C11	0.10584	. A
C10	H9	0.07350	. A
N2	N3	0.09663	. A
N2	H7	0.06862	. A
N3	H6	0.06815	. A
C11	C12	0.10217	. A
C11	N5	0.09940	. A
C11	H17	0.07368	. A
C12	C13	0.10367	. A
C12	H14	0.07292	. A
C12	H16	0.07310	. A
C13	N4	0.09922	. A
C13	H15	0.07327	. A
N4	N5	0.09709	. A
N4	H13	0.06853	. A
N5	H12	0.06846	. A
